file 57911 1601965010                                           
version 2
run General-0-20201005-22:51:33-32278
attr configname General
attr datetime 20201005-22:51:33
attr experiment General
attr inifile omnetpp.ini
attr iterationvars ""
attr iterationvarsf ""
attr measurement ""
attr network Test
attr processid 32278
attr repetition 0
attr replication #0
attr resultdir results
attr runnumber 0
attr seedset 0
param *.configurator.dumpAddresses true
param *.configurator.dumpTopology true
param *.configurator.dumpLinks true
param *.configurator.dumpRoutes true
param *.visualizer.interfaceTableVisualizer.displayInterfaceTables true
param *.visualizer.interfaceTableVisualizer.nodeFilter "\"not (*switch* or *Switch* or *AP*)\""
param *.client.hypervisor.VMno 1
param *.client.hypervisor.vm[*].numApps 1
param *.client.hypervisor.vm[*].app[*].typename "\"TcpBasicClientApp\""
param *.client.hypervisor.vm[*].app[*].thinkTime 0s
param *.client.hypervisor.vm[*].app[*].connectAddress "\"server\""
param *.client.hypervisor.vm[*].app[*].connectPort 1000
param *.client.hypervisor.vm[*].app[*].idleInterval 0s
param *.client.hypervisor.vm[*].app[*].numRequestsPerSession 1000
param *.client.hypervisor.vm[*].app[*].startTime 0.000001s
param *.client.hypervisor.vm[*].dockerEngine.dockerNumber 2
param *.client.hypervisor.vm[*].dockerEngine.docker[*].app.typename "\"TcpBasicClientApp\""
param *.client.hypervisor.vm[*].dockerEngine.docker[*].app.thinkTime 0s
param *.client.hypervisor.vm[*].dockerEngine.docker[*].app.connectAddress "\"server\""
param *.client.hypervisor.vm[*].dockerEngine.docker[*].app.connectPort 1000
param *.client.hypervisor.vm[*].dockerEngine.docker[*].app.idleInterval 0s
param *.client.hypervisor.vm[*].dockerEngine.docker[*].app.numRequestsPerSession 1000
param *.client.hypervisor.vm[*].dockerEngine.docker[*].app.startTime 0.000001s
param *.client.hypervisor.vm[*].dockerEngine.rrClassifier.resourceNumber 2
param *.server.hypervisor.VMno 1
param *.server.hypervisor.vm[*].numApps 1
param *.server.hypervisor.vm[*].app[*].typename "\"TcpGenericServerApp\""
param *.server.hypervisor.vm[*].dockerEngine.rrClassifier.resourceNumber 0

vector 0 Test.client.cpuModule.cpuCore[0].queue queueLength:vector ETV
attr interpolationmode sample-hold
attr title "queue length, vector"
vector 1 Test.client.cpuModule.cpuCore[1].queue queueLength:vector ETV
attr interpolationmode sample-hold
attr title "queue length, vector"
vector 2 Test.client.ram.readQueue queueLength:vector ETV
attr interpolationmode sample-hold
attr title "queue length, vector"
vector 3 Test.client.ram.writeQueue queueLength:vector ETV
attr interpolationmode sample-hold
attr title "queue length, vector"
vector 4 Test.client.mainStorage.readQueue queueLength:vector ETV
attr interpolationmode sample-hold
attr title "queue length, vector"
vector 5 Test.client.mainStorage.writeQueue queueLength:vector ETV
attr interpolationmode sample-hold
attr title "queue length, vector"
vector 6 Test.server.cpuModule.cpuCore[0].queue queueLength:vector ETV
attr interpolationmode sample-hold
attr title "queue length, vector"
vector 7 Test.server.cpuModule.cpuCore[1].queue queueLength:vector ETV
attr interpolationmode sample-hold
attr title "queue length, vector"
vector 8 Test.server.ram.readQueue queueLength:vector ETV
attr interpolationmode sample-hold
attr title "queue length, vector"
vector 9 Test.server.ram.writeQueue queueLength:vector ETV
attr interpolationmode sample-hold
attr title "queue length, vector"
vector 10 Test.server.mainStorage.readQueue queueLength:vector ETV
attr interpolationmode sample-hold
attr title "queue length, vector"
vector 11 Test.server.mainStorage.writeQueue queueLength:vector ETV
attr interpolationmode sample-hold
attr title "queue length, vector"
vector 12 Test.client.hypervisor.vm[0].app[0] numActiveSessions:vector ETV
attr interpolationmode sample-hold
attr source sum(connect)
attr title "number of active sessions, vector"
vector 13 Test.client.hypervisor.vm[0].dockerEngine.docker[0].app numActiveSessions:vector ETV
attr interpolationmode sample-hold
attr source sum(connect)
attr title "number of active sessions, vector"
vector 14 Test.client.hypervisor.vm[0].dockerEngine.docker[1].app numActiveSessions:vector ETV
attr interpolationmode sample-hold
attr source sum(connect)
attr title "number of active sessions, vector"
vector 15 Test.client.tcp.conn-4 tcpRcvQueueBytes:vector ETV
attr interpolationmode sample-hold
vector 16 Test.client.tcp.conn-4 rcvAdv:vector ETV
attr interpolationmode sample-hold
vector 17 Test.client.tcp.conn-4 rcvWnd:vector ETV
attr interpolationmode sample-hold
vector 18 Test.client.tcp.conn-4 sndAck:vector ETV
attr interpolationmode sample-hold
vector 19 Test.client.ipv4.arp arpRequestSent:vector(packetBytes) ETV
attr source arpRequestSent
attr title "ARP request sent, vector(packetBytes)"
vector 20 Test.client.tcp.conn-5 tcpRcvQueueBytes:vector ETV
attr interpolationmode sample-hold
vector 21 Test.client.tcp.conn-5 rcvAdv:vector ETV
attr interpolationmode sample-hold
vector 22 Test.client.tcp.conn-5 rcvWnd:vector ETV
attr interpolationmode sample-hold
vector 23 Test.client.tcp.conn-5 sndAck:vector ETV
attr interpolationmode sample-hold
vector 24 Test.client.tcp.conn-6 tcpRcvQueueBytes:vector ETV
attr interpolationmode sample-hold
vector 25 Test.client.tcp.conn-6 rcvAdv:vector ETV
attr interpolationmode sample-hold
vector 26 Test.client.tcp.conn-6 rcvWnd:vector ETV
attr interpolationmode sample-hold
vector 27 Test.client.tcp.conn-6 sndAck:vector ETV
attr interpolationmode sample-hold
vector 28 Test.client.eth[0].encap encapPk:vector(packetBytes) ETV
attr interpolationmode none
attr source encapPk
attr title "packets encapsulated, vector(packetBytes)"
vector 29 Test.client.eth[0].mac packetReceivedFromUpper:vector(packetBytes) ETV
attr interpolationmode none
attr source packetReceivedFromUpper
attr title "packet bytes from higher layer, vector(packetBytes)"
vector 30 Test.client.eth[0].mac.queue packetPushed:vector(packetBytes) ETV
attr interpolationmode none
attr title "packet pushed, vector(packetBytes)"
vector 31 Test.client.eth[0].mac.queue queueLength:vector ETV
attr interpolationmode sample-hold
attr source "count(packetPushed) - count(packetPopped) - count(packetRemoved) - count(packetDropped)"
attr title "queue length, vector"
vector 32 Test.client.eth[0].mac.queue packetPopped:vector(packetBytes) ETV
attr interpolationmode none
attr title "packet popped, vector(packetBytes)"
vector 33 Test.client.eth[0].mac.queue queueingTime:vector ETV
attr interpolationmode none
attr source queueingTime(packetPopped)
attr title "queueing times, vector"
attr unit s
vector 34 Test.client.eth[0].mac txPk:vector(packetBytes) ETV
attr interpolationmode none
attr source packetSentToLower
attr title "packets transmitted, vector(packetBytes)"
vector 35 Test.router.eth[1].mac rxPkOk:vector(packetBytes) ETV
attr interpolationmode none
attr source rxPkOk
attr title "packets received OK, vector(packetBytes)"
vector 36 Test.router.eth[1].mac passedUpPk:vector(packetBytes) ETV
attr interpolationmode none
attr source packetSentToUpper
attr title "packets passed to higher layer, vector(packetBytes)"
vector 37 Test.router.eth[1].encap decapPk:vector(packetBytes) ETV
attr interpolationmode none
attr source decapPk
attr title "packets decapsulated, vector(packetBytes)"
vector 38 Test.router.ipv4.arp arpReplySent:vector(packetBytes) ETV
attr source arpReplySent
attr title "ARP replies sent, vector(packetBytes)"
vector 39 Test.router.eth[1].encap encapPk:vector(packetBytes) ETV
attr interpolationmode none
attr source encapPk
attr title "packets encapsulated, vector(packetBytes)"
vector 40 Test.router.eth[1].mac packetReceivedFromUpper:vector(packetBytes) ETV
attr interpolationmode none
attr source packetReceivedFromUpper
attr title "packet bytes from higher layer, vector(packetBytes)"
vector 41 Test.router.eth[1].mac.queue packetPushed:vector(packetBytes) ETV
attr interpolationmode none
attr title "packet pushed, vector(packetBytes)"
vector 42 Test.router.eth[1].mac.queue queueLength:vector ETV
attr interpolationmode sample-hold
attr source "count(packetPushed) - count(packetPopped) - count(packetRemoved) - count(packetDropped)"
attr title "queue length, vector"
vector 43 Test.router.eth[1].mac.queue packetPopped:vector(packetBytes) ETV
attr interpolationmode none
attr title "packet popped, vector(packetBytes)"
vector 44 Test.router.eth[1].mac.queue queueingTime:vector ETV
attr interpolationmode none
attr source queueingTime(packetPopped)
attr title "queueing times, vector"
attr unit s
vector 45 Test.router.eth[1].mac txPk:vector(packetBytes) ETV
attr interpolationmode none
attr source packetSentToLower
attr title "packets transmitted, vector(packetBytes)"
vector 46 Test.client.eth[0].mac rxPkOk:vector(packetBytes) ETV
attr interpolationmode none
attr source rxPkOk
attr title "packets received OK, vector(packetBytes)"
vector 47 Test.client.eth[0].mac passedUpPk:vector(packetBytes) ETV
attr interpolationmode none
attr source packetSentToUpper
attr title "packets passed to higher layer, vector(packetBytes)"
vector 48 Test.client.eth[0].encap decapPk:vector(packetBytes) ETV
attr interpolationmode none
attr source decapPk
attr title "packets decapsulated, vector(packetBytes)"
vector 49 Test.router.ipv4.arp arpRequestSent:vector(packetBytes) ETV
attr source arpRequestSent
attr title "ARP request sent, vector(packetBytes)"
vector 50 Test.router.eth[0].encap encapPk:vector(packetBytes) ETV
attr interpolationmode none
attr source encapPk
attr title "packets encapsulated, vector(packetBytes)"
vector 51 Test.router.eth[0].mac packetReceivedFromUpper:vector(packetBytes) ETV
attr interpolationmode none
attr source packetReceivedFromUpper
attr title "packet bytes from higher layer, vector(packetBytes)"
vector 52 Test.router.eth[0].mac.queue packetPushed:vector(packetBytes) ETV
attr interpolationmode none
attr title "packet pushed, vector(packetBytes)"
vector 53 Test.router.eth[0].mac.queue queueLength:vector ETV
attr interpolationmode sample-hold
attr source "count(packetPushed) - count(packetPopped) - count(packetRemoved) - count(packetDropped)"
attr title "queue length, vector"
vector 54 Test.router.eth[0].mac.queue packetPopped:vector(packetBytes) ETV
attr interpolationmode none
attr title "packet popped, vector(packetBytes)"
vector 55 Test.router.eth[0].mac.queue queueingTime:vector ETV
attr interpolationmode none
attr source queueingTime(packetPopped)
attr title "queueing times, vector"
attr unit s
vector 56 Test.router.eth[0].mac txPk:vector(packetBytes) ETV
attr interpolationmode none
attr source packetSentToLower
attr title "packets transmitted, vector(packetBytes)"
vector 57 Test.server.eth[0].mac rxPkOk:vector(packetBytes) ETV
attr interpolationmode none
attr source rxPkOk
attr title "packets received OK, vector(packetBytes)"
vector 58 Test.server.eth[0].mac passedUpPk:vector(packetBytes) ETV
attr interpolationmode none
attr source packetSentToUpper
attr title "packets passed to higher layer, vector(packetBytes)"
vector 59 Test.server.eth[0].encap decapPk:vector(packetBytes) ETV
attr interpolationmode none
attr source decapPk
attr title "packets decapsulated, vector(packetBytes)"
vector 60 Test.server.ipv4.arp arpReplySent:vector(packetBytes) ETV
attr source arpReplySent
attr title "ARP replies sent, vector(packetBytes)"
vector 61 Test.server.eth[0].encap encapPk:vector(packetBytes) ETV
attr interpolationmode none
attr source encapPk
attr title "packets encapsulated, vector(packetBytes)"
vector 62 Test.server.eth[0].mac packetReceivedFromUpper:vector(packetBytes) ETV
attr interpolationmode none
attr source packetReceivedFromUpper
attr title "packet bytes from higher layer, vector(packetBytes)"
vector 63 Test.server.eth[0].mac.queue packetPushed:vector(packetBytes) ETV
attr interpolationmode none
attr title "packet pushed, vector(packetBytes)"
vector 64 Test.server.eth[0].mac.queue queueLength:vector ETV
attr interpolationmode sample-hold
attr source "count(packetPushed) - count(packetPopped) - count(packetRemoved) - count(packetDropped)"
attr title "queue length, vector"
vector 65 Test.server.eth[0].mac.queue packetPopped:vector(packetBytes) ETV
attr interpolationmode none
attr title "packet popped, vector(packetBytes)"
vector 66 Test.server.eth[0].mac.queue queueingTime:vector ETV
attr interpolationmode none
attr source queueingTime(packetPopped)
attr title "queueing times, vector"
attr unit s
vector 67 Test.server.eth[0].mac txPk:vector(packetBytes) ETV
attr interpolationmode none
attr source packetSentToLower
attr title "packets transmitted, vector(packetBytes)"
vector 68 Test.router.eth[0].mac rxPkOk:vector(packetBytes) ETV
attr interpolationmode none
attr source rxPkOk
attr title "packets received OK, vector(packetBytes)"
vector 69 Test.router.eth[0].mac passedUpPk:vector(packetBytes) ETV
attr interpolationmode none
attr source packetSentToUpper
attr title "packets passed to higher layer, vector(packetBytes)"
vector 70 Test.router.eth[0].encap decapPk:vector(packetBytes) ETV
attr interpolationmode none
attr source decapPk
attr title "packets decapsulated, vector(packetBytes)"
vector 71 Test.server.tcp.conn-3 rcvSeq:vector ETV
attr interpolationmode sample-hold
vector 72 Test.server.tcp.conn-3 rcvAck:vector ETV
attr interpolationmode sample-hold
vector 73 Test.server.tcp.conn-7 rcvAdv:vector ETV
attr interpolationmode sample-hold
vector 74 Test.server.tcp.conn-7 sndWnd:vector ETV
attr interpolationmode sample-hold
vector 75 Test.server.tcp.conn-7 tcpRcvQueueBytes:vector ETV
attr interpolationmode sample-hold
vector 76 Test.server.tcp.conn-7 rcvWnd:vector ETV
attr interpolationmode sample-hold
vector 77 Test.server.tcp.conn-7 sndAck:vector ETV
attr interpolationmode sample-hold
vector 78 Test.server.tcp.conn-8 rcvAdv:vector ETV
attr interpolationmode sample-hold
vector 79 Test.server.tcp.conn-8 sndWnd:vector ETV
attr interpolationmode sample-hold
vector 80 Test.server.tcp.conn-8 tcpRcvQueueBytes:vector ETV
attr interpolationmode sample-hold
vector 81 Test.server.tcp.conn-8 rcvWnd:vector ETV
attr interpolationmode sample-hold
vector 82 Test.server.tcp.conn-8 sndAck:vector ETV
attr interpolationmode sample-hold
vector 83 Test.client.tcp.conn-4 rcvSeq:vector ETV
attr interpolationmode sample-hold
vector 84 Test.client.tcp.conn-4 rcvAck:vector ETV
attr interpolationmode sample-hold
vector 85 Test.client.tcp.conn-4 sndWnd:vector ETV
attr interpolationmode sample-hold
vector 86 Test.client.hypervisor.vm[0].app[0] packetSent:vector(packetBytes) ETV
attr interpolationmode none
attr source packetSent
attr title "packets sent, vector(packetBytes)"
vector 87 Test.client.tcp.conn-4 sndNxt:vector ETV
attr interpolationmode sample-hold
vector 88 Test.client.tcp.conn-4 unacked:vector ETV
attr interpolationmode sample-hold
vector 89 Test.server.tcp.conn-9 rcvAdv:vector ETV
attr interpolationmode sample-hold
vector 90 Test.server.tcp.conn-9 sndWnd:vector ETV
attr interpolationmode sample-hold
vector 91 Test.server.tcp.conn-9 tcpRcvQueueBytes:vector ETV
attr interpolationmode sample-hold
vector 92 Test.server.tcp.conn-9 rcvWnd:vector ETV
attr interpolationmode sample-hold
vector 93 Test.server.tcp.conn-9 sndAck:vector ETV
attr interpolationmode sample-hold
vector 94 Test.client.tcp.conn-5 rcvSeq:vector ETV
attr interpolationmode sample-hold
vector 95 Test.client.tcp.conn-5 rcvAck:vector ETV
attr interpolationmode sample-hold
vector 96 Test.client.tcp.conn-5 sndWnd:vector ETV
attr interpolationmode sample-hold
vector 97 Test.client.hypervisor.vm[0].dockerEngine.docker[0].app packetSent:vector(packetBytes) ETV
attr interpolationmode none
attr source packetSent
attr title "packets sent, vector(packetBytes)"
vector 98 Test.client.tcp.conn-5 sndNxt:vector ETV
attr interpolationmode sample-hold
vector 99 Test.client.tcp.conn-5 unacked:vector ETV
attr interpolationmode sample-hold
vector 100 Test.server.tcp.conn-7 rcvSeq:vector ETV
attr interpolationmode sample-hold
vector 101 Test.server.tcp.conn-7 rcvAck:vector ETV
attr interpolationmode sample-hold
vector 102 Test.server.tcp.conn-7 unacked:vector ETV
attr interpolationmode sample-hold
vector 103 Test.client.tcp.conn-6 rcvSeq:vector ETV
attr interpolationmode sample-hold
vector 104 Test.client.tcp.conn-6 rcvAck:vector ETV
attr interpolationmode sample-hold
vector 105 Test.client.tcp.conn-6 sndWnd:vector ETV
attr interpolationmode sample-hold
vector 106 Test.client.hypervisor.vm[0].dockerEngine.docker[1].app packetSent:vector(packetBytes) ETV
attr interpolationmode none
attr source packetSent
attr title "packets sent, vector(packetBytes)"
vector 107 Test.client.tcp.conn-6 sndNxt:vector ETV
attr interpolationmode sample-hold
vector 108 Test.client.tcp.conn-6 unacked:vector ETV
attr interpolationmode sample-hold
vector 109 Test.server.tcp.conn-7 dupAcks:vector ETV
attr interpolationmode sample-hold
vector 110 Test.server.hypervisor.vm[0].app[0] packetReceived:vector(packetBytes) ETV
attr interpolationmode none
attr source packetReceived
attr title "packets received, vector(packetBytes)"
vector 111 Test.server.hypervisor.vm[0].app[0] endToEndDelay:vector ETV
attr interpolationmode none
attr source dataAge(packetReceived)
attr title "end-to-end delay, vector"
attr unit s
vector 112 Test.server.hypervisor.vm[0].app[0] packetSent:vector(packetBytes) ETV
attr interpolationmode none
attr source packetSent
attr title "packets sent, vector(packetBytes)"
vector 113 Test.server.tcp.conn-7 sndNxt:vector ETV
attr interpolationmode sample-hold
vector 114 Test.server.tcp.conn-8 rcvSeq:vector ETV
attr interpolationmode sample-hold
vector 115 Test.server.tcp.conn-8 rcvAck:vector ETV
attr interpolationmode sample-hold
vector 116 Test.server.tcp.conn-8 unacked:vector ETV
attr interpolationmode sample-hold
vector 117 Test.client.tcp.conn-4 rtt:vector ETV
attr interpolationmode sample-hold
vector 118 Test.client.tcp.conn-4 srtt:vector ETV
attr interpolationmode sample-hold
vector 119 Test.client.tcp.conn-4 rttvar:vector ETV
attr interpolationmode sample-hold
vector 120 Test.client.tcp.conn-4 rto:vector ETV
attr interpolationmode sample-hold
vector 121 Test.client.tcp.conn-4 cwnd:vector ETV
attr interpolationmode sample-hold
vector 122 Test.client.tcp.conn-4 ssthresh:vector ETV
attr interpolationmode sample-hold
vector 123 Test.client.tcp.conn-4 dupAcks:vector ETV
attr interpolationmode sample-hold
vector 124 Test.server.tcp.conn-8 dupAcks:vector ETV
attr interpolationmode sample-hold
vector 125 Test.server.tcp.conn-8 sndNxt:vector ETV
attr interpolationmode sample-hold
vector 126 Test.server.tcp.conn-9 rcvSeq:vector ETV
attr interpolationmode sample-hold
vector 127 Test.server.tcp.conn-9 rcvAck:vector ETV
attr interpolationmode sample-hold
vector 128 Test.server.tcp.conn-9 unacked:vector ETV
attr interpolationmode sample-hold
vector 129 Test.server.tcp.conn-9 dupAcks:vector ETV
attr interpolationmode sample-hold
vector 130 Test.server.tcp.conn-9 sndNxt:vector ETV
attr interpolationmode sample-hold
vector 131 Test.client.ram.writeJobs lifeTime:vector ETV
attr interpolationmode none
attr title "lifetime of arrived jobs, vector"
attr unit s
vector 132 Test.client.mainStorage.writeJobs lifeTime:vector ETV
attr interpolationmode none
attr title "lifetime of arrived jobs, vector"
attr unit s
vector 133 Test.server.ram.writeJobs lifeTime:vector ETV
attr interpolationmode none
attr title "lifetime of arrived jobs, vector"
attr unit s
vector 134 Test.server.mainStorage.writeJobs lifeTime:vector ETV
attr interpolationmode none
attr title "lifetime of arrived jobs, vector"
attr unit s
vector 135 Test.client.hypervisor.vm[0].os.mem lifeTime:vector ETV
attr interpolationmode none
attr title "lifetime of arrived jobs, vector"
attr unit s
vector 136 Test.client.hypervisor.vm[0].os.storage lifeTime:vector ETV
attr interpolationmode none
attr title "lifetime of arrived jobs, vector"
attr unit s
vector 137 Test.server.hypervisor.vm[0].os.mem lifeTime:vector ETV
attr interpolationmode none
attr title "lifetime of arrived jobs, vector"
attr unit s
vector 138 Test.server.hypervisor.vm[0].os.storage lifeTime:vector ETV
attr interpolationmode none
attr title "lifetime of arrived jobs, vector"
attr unit s
vector 139 Test.client.hypervisor.vm[0].app[0] packetReceived:vector(packetBytes) ETV
attr interpolationmode none
attr source packetReceived
attr title "packets received, vector(packetBytes)"
vector 140 Test.client.hypervisor.vm[0].app[0] endToEndDelay:vector ETV
attr interpolationmode none
attr source dataAge(packetReceived)
attr title "end-to-end delay, vector"
attr unit s
vector 141 Test.client.tcp.conn-5 rtt:vector ETV
attr interpolationmode sample-hold
vector 142 Test.client.tcp.conn-5 srtt:vector ETV
attr interpolationmode sample-hold
vector 143 Test.client.tcp.conn-5 rttvar:vector ETV
attr interpolationmode sample-hold
vector 144 Test.client.tcp.conn-5 rto:vector ETV
attr interpolationmode sample-hold
vector 145 Test.client.tcp.conn-5 cwnd:vector ETV
attr interpolationmode sample-hold
vector 146 Test.client.tcp.conn-5 ssthresh:vector ETV
attr interpolationmode sample-hold
vector 147 Test.client.tcp.conn-5 dupAcks:vector ETV
attr interpolationmode sample-hold
vector 148 Test.server.tcp.conn-7 rtt:vector ETV
attr interpolationmode sample-hold
vector 149 Test.server.tcp.conn-7 srtt:vector ETV
attr interpolationmode sample-hold
vector 150 Test.server.tcp.conn-7 rttvar:vector ETV
attr interpolationmode sample-hold
vector 151 Test.server.tcp.conn-7 rto:vector ETV
attr interpolationmode sample-hold
vector 152 Test.server.tcp.conn-7 cwnd:vector ETV
attr interpolationmode sample-hold
vector 153 Test.server.tcp.conn-7 ssthresh:vector ETV
attr interpolationmode sample-hold
vector 154 Test.client.hypervisor.vm[0].dockerEngine.docker[0].app packetReceived:vector(packetBytes) ETV
attr interpolationmode none
attr source packetReceived
attr title "packets received, vector(packetBytes)"
vector 155 Test.client.hypervisor.vm[0].dockerEngine.docker[0].app endToEndDelay:vector ETV
attr interpolationmode none
attr source dataAge(packetReceived)
attr title "end-to-end delay, vector"
attr unit s
vector 156 Test.client.tcp.conn-6 rtt:vector ETV
attr interpolationmode sample-hold
vector 157 Test.client.tcp.conn-6 srtt:vector ETV
attr interpolationmode sample-hold
vector 158 Test.client.tcp.conn-6 rttvar:vector ETV
attr interpolationmode sample-hold
vector 159 Test.client.tcp.conn-6 rto:vector ETV
attr interpolationmode sample-hold
vector 160 Test.client.tcp.conn-6 cwnd:vector ETV
attr interpolationmode sample-hold
vector 161 Test.client.tcp.conn-6 ssthresh:vector ETV
attr interpolationmode sample-hold
vector 162 Test.client.tcp.conn-6 dupAcks:vector ETV
attr interpolationmode sample-hold
vector 163 Test.server.tcp.conn-8 rtt:vector ETV
attr interpolationmode sample-hold
vector 164 Test.server.tcp.conn-8 srtt:vector ETV
attr interpolationmode sample-hold
vector 165 Test.server.tcp.conn-8 rttvar:vector ETV
attr interpolationmode sample-hold
vector 166 Test.server.tcp.conn-8 rto:vector ETV
attr interpolationmode sample-hold
vector 167 Test.server.tcp.conn-8 cwnd:vector ETV
attr interpolationmode sample-hold
vector 168 Test.server.tcp.conn-8 ssthresh:vector ETV
attr interpolationmode sample-hold
vector 169 Test.client.hypervisor.vm[0].os.cpu lifeTime:vector ETV
attr interpolationmode none
attr title "lifetime of arrived jobs, vector"
attr unit s
vector 170 Test.server.hypervisor.vm[0].os.cpu lifeTime:vector ETV
attr interpolationmode none
attr title "lifetime of arrived jobs, vector"
attr unit s
vector 171 Test.server.tcp.conn-9 rtt:vector ETV
attr interpolationmode sample-hold
vector 172 Test.server.tcp.conn-9 srtt:vector ETV
attr interpolationmode sample-hold
vector 173 Test.server.tcp.conn-9 rttvar:vector ETV
attr interpolationmode sample-hold
vector 174 Test.server.tcp.conn-9 rto:vector ETV
attr interpolationmode sample-hold
vector 175 Test.server.tcp.conn-9 cwnd:vector ETV
attr interpolationmode sample-hold
vector 176 Test.server.tcp.conn-9 ssthresh:vector ETV
attr interpolationmode sample-hold
vector 177 Test.client.hypervisor.vm[0].dockerEngine.docker[1].app packetReceived:vector(packetBytes) ETV
attr interpolationmode none
attr source packetReceived
attr title "packets received, vector(packetBytes)"
vector 178 Test.client.hypervisor.vm[0].dockerEngine.docker[1].app endToEndDelay:vector ETV
attr interpolationmode none
attr source dataAge(packetReceived)
attr title "end-to-end delay, vector"
attr unit s
0	24438 114 0 1078 0 0.0006 8 0 3 10 20
1	24552 114 0 1079 0 0.0006 8 0 3 10 20
2	24666 8 0 0 0 0 1 0 0 0 0
3	24674 8 0 0 0 0 1 0 0 0 0
4	24682 8 0 0 0 0 1 0 0 0 0
5	24690 8 0 0 0 0 1 0 0 0 0
6	24698 114 0 1080 0 0.0006 8 0 3 10 20
7	24812 114 0 1081 0 0.0006 8 0 3 10 20
8	24926 8 0 0 0 0 1 0 0 0 0
9	24934 8 0 0 0 0 1 0 0 0 0
10	24942 9 0 0 0 0 1 0 0 0 0
11	24951 9 0 0 0 0 1 0 0 0 0
12	24960 16 2 2 0.000001 0.000001 1 1 1 1 1
13	24976 16 3 3 0.000001 0.000001 1 1 1 1 1
14	24992 16 4 4 0.000001 0.000001 1 1 1 1 1
15	25008 201 5 755 0.000001 0.00041664 11 0 0 0 0
16	25209 192 5 755 0.000001 0.00041664 9 7504 9121 72968 595305832
17	25401 170 5 755 0.000001 0.00041664 8 7504 7504 60032 450480128
18	25571 159 5 755 0.000001 0.00041664 8 0 1617 5423 6992151
19	25730 17 8 8 0.000001 0.000001 1 28 28 28 784
20	25747 213 9 957 0.000001 0.0005216 11 0 0 0 0
21	25960 199 9 957 0.000001 0.0005216 9 7504 9123 72984 595567720
22	26159 177 9 957 0.000001 0.0005216 8 7504 7504 60032 450480128
23	26336 168 9 957 0.000001 0.0005216 8 0 1619 5437 7013871
24	26504 157 10 992 0.000001 0.00057072 8 0 0 0 0
25	26661 158 10 992 0.000001 0.00057072 7 7504 8589 54750 429298422
26	26819 135 10 992 0.000001 0.00057072 6 7504 7504 45024 337860096
27	26954 126 10 992 0.000001 0.00057072 6 0 1085 2209 1780365
28	27080 473 11 996 0.000001 0.00057072 23 28 440 2920 756992
29	27553 473 14 998 0.000001 0.00057072 23 46 458 3334 869564
30	28026 473 14 998 0.000001 0.00057072 23 64 458 3424 880352
31	28499 888 14 998 0.000001 0.00057072 46 0 4 37 67
32	29387 477 14 998 0.000001 0.00057072 23 64 458 3424 880352
33	29864 520 14 998 0.000001 0.00057072 23 0 5.12e-05 0.00019392 6.3396352e-09
34	30384 482 15 1009 0.00000676 0.00057648 23 64 458 3424 880352
35	30866 488 16 1010 0.00000681 0.00057653 23 64 458 3424 880352
36	31354 488 16 1010 0.00000681 0.00057653 23 64 458 3424 880352
37	31842 488 17 1011 0.00000681 0.00057653 23 46 440 3010 764540
38	32330 20 18 18 0.00000681 0.00000681 1 28 28 28 784
39	32350 386 19 1006 0.00000681 0.00057163 18 28 576 5544 3000576
40	32736 386 20 1007 0.00000681 0.00057163 18 46 594 5868 3205992
41	33122 386 20 1007 0.00000681 0.00057163 18 64 594 5922 3212388
42	33508 718 20 1007 0.00000681 0.00057163 36 0 1 18 18
43	34226 386 20 1007 0.00000681 0.00057163 18 64 594 5922 3212388
44	34612 387 20 1007 0.00000681 0.00057163 18 0 4.24e-05 0.0001696 7.19104e-09
45	34999 363 22 988 0.00001257 0.00057067 17 64 594 5328 2859552
46	35362 356 23 989 0.00001262 0.00057072 17 64 594 5328 2859552
47	35718 356 23 989 0.00001262 0.00057072 17 64 594 5328 2859552
48	36074 356 24 990 0.00001262 0.00057072 17 46 576 5022 2673252
49	36430 20 36 36 0.00001843 0.00001843 1 28 28 28 784
50	36450 488 37 1013 0.00001843 0.00057653 23 28 440 2920 756992
51	36938 488 38 1014 0.00001843 0.00057653 23 46 458 3334 869564
52	37426 488 38 1014 0.00001843 0.00057653 23 64 458 3424 880352
53	37914 914 38 1027 0.00001843 0.00059717 46 0 2 25 27
54	38828 488 38 1027 0.00001843 0.00059717 23 64 458 3424 880352
55	39316 517 38 1027 0.00001843 0.00059717 23 0 2.064e-05 9.626e-05 1.5403876e-09
56	39833 490 40 1082 0.00002419 0.00060293 23 64 458 3424 880352
57	40323 486 41 1083 0.00002424 0.00060298 23 64 458 3424 880352
58	40809 486 41 1083 0.00002424 0.00060298 23 64 458 3424 880352
59	41295 486 42 1084 0.00002424 0.00060298 23 46 440 3010 764540
60	41781 20 43 43 0.00002424 0.00002424 1 28 28 28 784
61	41801 620 44 1025 0.00002424 0.00059626 29 28 576 10272 5659584
62	42421 620 45 1026 0.00002424 0.00059626 29 46 594 10794 6038772
63	43041 620 45 1026 0.00002424 0.00059626 29 64 594 10866 6047364
64	43661 950 45 1026 0.00002424 0.00059626 48 0 10 182 1116
65	44611 403 45 1008 0.00002424 0.00057254 19 64 594 6516 3565224
66	45014 488 45 1008 0.00002424 0.00057254 19 0 0.00020012 0.0014158 1.968694032e-07
67	45502 381 52 1001 0.00003 0.00057158 18 64 594 5922 3212388
68	45883 386 53 1002 0.00003005 0.00057163 18 64 594 5922 3212388
69	46269 386 53 1002 0.00003005 0.00057163 18 64 594 5922 3212388
70	46655 386 54 1004 0.00003005 0.00057163 18 46 576 5598 3005028
71	47041 57 72 118 0.00003586 0.0000493 3 0 0 0 0
72	47098 57 72 118 0.00003586 0.0000493 3 0 0 0 0
73	47155 273 72 828 0.00003586 0.0004913 12 7505 8305 93660 731536300
74	47428 113 72 771 0.00003586 0.00042154 5 7504 7504 37520 281550080
75	47541 277 72 828 0.00003586 0.0004913 14 0 0 0 0
76	47818 251 72 828 0.00003586 0.0004913 11 7504 7504 82544 619410176
77	48069 238 72 828 0.00003586 0.0004913 11 1 801 3611 1607211
78	48307 275 88 1020 0.00004258 0.00059626 12 7505 8305 93660 731536300
79	48582 114 88 973 0.00004258 0.00052698 5 7504 7504 37520 281550080
80	48696 281 88 1020 0.00004258 0.00059626 14 0 0 0 0
81	48977 253 88 1020 0.00004258 0.00059626 11 7504 7504 82544 619410176
82	49230 240 88 1020 0.00004258 0.00059626 11 1 801 3611 1607211
83	49470 122 97 755 0.00004748 0.00041664 6 8 1617 3269 4080501
84	49592 124 97 755 0.00004748 0.00041664 6 1 401 1206 322406
85	49716 68 97 755 0.00004748 0.00041664 3 7504 7504 22512 168930048
86	49784 82 99 739 0.00004748 0.00040992 4 200 200 800 160000
87	49866 60 101 755 0.00004748 0.00041664 3 1 401 603 201203
88	49926 102 101 755 0.00004748 0.00041664 5 0 400 800 240000
89	50028 157 118 939 0.0000493 0.00052026 7 7505 7905 53735 412607175
90	50185 67 118 625 0.0000493 0.0003233 3 7504 7504 22512 168930048
91	50252 157 118 939 0.0000493 0.00052026 8 0 0 0 0
92	50409 135 118 939 0.0000493 0.00052026 6 7504 7504 45024 337860096
93	50544 127 118 939 0.0000493 0.00052026 6 1 401 1206 322406
94	50671 129 134 957 0.0000542 0.0005216 6 10 1619 3281 4093601
95	50800 128 134 957 0.0000542 0.0005216 6 1 401 1206 322406
96	50928 67 134 957 0.0000542 0.0005216 3 7504 7504 22512 168930048
97	50995 109 138 997 0.0000542 0.00057072 5 200 200 1000 200000
98	51104 62 141 957 0.0000542 0.0005216 3 1 401 603 201203
99	51166 103 141 957 0.0000542 0.0005216 5 0 400 800 240000
100	51269 155 157 828 0.0000591 0.0004913 7 1 401 1607 563207
101	51424 158 157 828 0.0000591 0.0004913 7 9 1617 5423 6992151
102	51582 183 157 771 0.0000591 0.00042154 8 0 2144 6968 10055360
103	51765 89 166 992 0.00006092 0.00057072 4 12 549 587 301883
104	51854 90 166 992 0.00006092 0.00057072 4 1 201 604 121204
105	51944 48 166 488 0.00006092 0.00026256 2 7504 7504 15008 112620032
106	51992 46 170 795 0.00006092 0.00046576 2 200 200 400 80000
107	52038 44 173 798 0.00006092 0.00046576 2 1 201 202 40402
108	52082 67 173 798 0.00006092 0.00046576 3 0 200 400 80000
109	52149 125 196 828 0.00009686 0.0004913 6 0 0 0 0
110	52274 184 197 1021 0.00009686 0.00059626 8 200 400 2000 560000
111	52458 290 197 1021 0.00009686 0.00059626 10 4.938e-05 0.00028458 0.00094596 1.354859624e-07
112	52748 270 197 1021 0.00009686 0.00059626 10 1048576 1048576 10485760 10995116277760
113	53018 164 199 771 0.00009686 0.00042154 7 9 3225 11319 26347111
114	53182 158 251 1020 0.00010358 0.00059626 7 1 401 1607 563207
115	53340 163 251 1020 0.00010358 0.00059626 7 11 1619 5437 7013871
116	53503 184 251 973 0.00010358 0.00052698 8 0 2144 6968 10055360
117	53687 57 267 755 0.00010848 0.00041664 2 6.1e-05 0.00021664 0.00027764 5.06538896e-08
118	53744 62 267 755 0.00010848 0.00041664 2 7.625e-06 3.3751875e-05 4.1376875e-05 1.1973296910156e-09
119	53806 64 267 755 0.00010848 0.00041664 2 0.57425154875 0.656257625 1.23050917375 0.76043891161241
120	53870 65 267 755 0.00010848 0.00041664 2 2.297039946875 2.625038125 4.922078071875 12.167217675243
121	53935 48 267 755 0.00010848 0.00041664 2 1072 1608 2680 3734848
122	53983 60 267 755 0.00010848 0.00041664 2 4294967295 4294967295 8589934590 3.6893488130239e+19
123	54043 100 267 755 0.00010848 0.00041664 5 0 0 0 0
124	54143 127 280 1020 0.00012582 0.00059626 6 0 0 0 0
125	54270 165 283 973 0.00012582 0.00052698 7 11 3227 11333 26392415
126	54435 87 294 939 0.00013254 0.00052026 4 1 201 404 80804
127	54522 89 294 939 0.00013254 0.00052026 4 13 549 1124 603140
128	54611 87 294 625 0.00013254 0.0003233 4 0 1072 1608 1436480
129	54698 62 317 939 0.00015478 0.00052026 3 0 0 0 0
130	54760 67 320 625 0.00015478 0.0003233 3 13 1085 1647 1478795
131	54827 111 365 1057 0.0002 0.0006 5 0.0001 0.0001 0.0005 5e-08
132	54938 111 367 1059 0.0002 0.0006 5 0.0001 0.0001 0.0005 5e-08
133	55049 111 369 1061 0.0002 0.0006 5 0.0001 0.0001 0.0005 5e-08
134	55160 111 371 1063 0.0002 0.0006 5 0.0001 0.0001 0.0005 5e-08
135	55271 111 383 1074 0.0002 0.0006 5 0.0001 0.0001 0.0005 5e-08
136	55382 111 384 1075 0.0002 0.0006 5 0.0001 0.0001 0.0005 5e-08
137	55493 111 385 1076 0.0002 0.0006 5 0.0001 0.0001 0.0005 5e-08
138	55604 111 386 1077 0.0002 0.0006 5 0.0001 0.0001 0.0005 5e-08
139	55715 64 393 737 0.0002 0.00040992 3 536 536 1608 861888
140	55779 85 393 737 0.0002 0.00040992 3 0.00010314 0.00031306 0.00068014 1.783087468e-07
141	55864 59 414 957 0.00020672 0.0005216 2 0.00015252 0.00026576 0.00041828 9.3890728e-08
142	55923 62 414 957 0.00020672 0.0005216 2 1.9065e-05 4.9901875e-05 6.8966875e-05 2.8536713535156e-09
143	55985 63 414 957 0.00020672 0.0005216 2 0.57426626875 0.656269065 1.23053533375 0.76047083310002
144	56048 64 414 957 0.00020672 0.0005216 2 2.297114976875 2.625095325 4.922210301875 12.16786268232
145	56112 47 414 957 0.00020672 0.0005216 2 1072 1608 2680 3734848
146	56159 59 414 957 0.00020672 0.0005216 2 4294967295 4294967295 8589934590 3.6893488130239e+19
147	56218 104 414 957 0.00020672 0.0005216 5 0 0 0 0
148	56322 59 427 670 0.00021162 0.00037242 2 0.00011476 0.0001608 0.00027556 3.90264976e-08
149	56381 63 427 670 0.00021162 0.00037242 2 1.4345e-05 3.2651875e-05 4.6996875e-05 1.2719239660156e-09
150	56444 64 427 670 0.00021162 0.00037242 2 0.57424960875 0.656264345 1.23051395375 0.76044550366781
151	56508 65 427 670 0.00021162 0.00037242 2 2.297031086875 2.625071725 4.922102811875 12.167353375465
152	56573 72 427 771 0.00021162 0.00042154 3 1072 2144 4824 8331584
153	56645 90 427 771 0.00021162 0.00042154 3 4294967295 4294967295 12884901885 5.5340232195359e+19
154	56735 92 467 995 0.00025584 0.00057072 4 536 536 2144 1149184
155	56827 119 467 995 0.00025584 0.00057072 4 0.00013002 0.00041594 0.00109192 3.658965776e-07
156	56946 30 488 488 0.00026256 0.00026256 1 0.00020164 0.00020164 0.00020164 4.06586896e-08
157	56976 30 488 488 0.00026256 0.00026256 1 2.5205e-05 2.5205e-05 2.5205e-05 6.35292025e-10
158	57006 31 488 488 0.00026256 0.00026256 1 0.656275205 0.656275205 0.656275205 0.43069714469779
159	57037 31 488 488 0.00026256 0.00026256 1 2.625126025 2.625126025 2.625126025 6.8912866471323
160	57068 24 488 488 0.00026256 0.00026256 1 1072 1072 1072 1149184
161	57092 30 488 488 0.00026256 0.00026256 1 4294967295 4294967295 4294967295 1.844674406512e+19
162	57122 63 488 992 0.00026256 0.00057072 3 0 0 0 0
163	57185 60 501 847 0.00026746 0.00049802 2 0.00014164 0.00023056 0.0003722 7.32198032e-08
164	57245 63 501 847 0.00026746 0.00049802 2 1.7705e-05 4.4311875e-05 6.2016875e-05 2.2770092910156e-09
165	57308 64 501 847 0.00026746 0.00049802 2 0.57426084875 0.656267705 1.23052855375 0.76046282303304
166	57372 65 501 847 0.00026746 0.00049802 2 2.297087706875 2.625088525 4.922176231875 12.167701697163
167	57437 72 501 973 0.00026746 0.00052698 3 1072 2144 4824 8331584
168	57509 90 501 973 0.00026746 0.00052698 3 4294967295 4294967295 12884901885 5.5340232195359e+19
169	57599 44 576 915 0.0003 0.0005 2 0.0002 0.0003 0.0005 1.3e-07
170	57643 44 577 916 0.0003 0.0005 2 0.0002 0.0003 0.0005 1.3e-07
171	57687 29 625 625 0.0003233 0.0003233 1 0.00016852 0.00016852 0.00016852 2.83989904e-08
172	57716 29 625 625 0.0003233 0.0003233 1 2.1065e-05 2.1065e-05 2.1065e-05 4.43734225e-10
173	57745 30 625 625 0.0003233 0.0003233 1 0.656271065 0.656271065 0.656271065 0.43069171075623
174	57775 30 625 625 0.0003233 0.0003233 1 2.625105325 2.625105325 2.625105325 6.8911779673434
175	57805 23 625 625 0.0003233 0.0003233 1 1072 1072 1072 1149184
176	57828 29 625 625 0.0003233 0.0003233 1 4294967295 4294967295 4294967295 1.844674406512e+19
177	57857 23 793 793 0.00046576 0.00046576 1 536 536 536 287296
178	57880 30 793 793 0.00046576 0.00046576 1 0.00033994 0.00033994 0.00033994 1.155592036e-07

