version 2
run General-0-20201008-16:55:32-57803
attr configname General
attr datetime 20201008-16:55:32
attr experiment General
attr inifile omnetpp.ini
attr iterationvars ""
attr iterationvarsf ""
attr measurement ""
attr network Test
attr processid 57803
attr repetition 0
attr replication #0
attr resultdir results
attr runnumber 0
attr seedset 0
param *.configurator.dumpAddresses true
param *.configurator.dumpTopology true
param *.configurator.dumpLinks true
param *.configurator.dumpRoutes true
param *.visualizer.interfaceTableVisualizer.displayInterfaceTables true
param *.visualizer.interfaceTableVisualizer.nodeFilter "\"not (*switch* or *Switch* or *AP* or node*)\""
param *.client.hypervisor.VMno 2
param *.client.hypervisor.vm[*].numApps 1
param *.client.hypervisor.vm[*].app[*].typename "\"TcpBasicClientApp\""
param *.client.hypervisor.vm[*].app[*].thinkTime 0s
param *.client.hypervisor.vm[*].app[*].connectAddress "\"server\""
param *.client.hypervisor.vm[*].app[*].connectPort 1000
param *.client.hypervisor.vm[*].app[*].idleInterval 0s
param *.client.hypervisor.vm[*].app[*].numRequestsPerSession 1000
param *.client.hypervisor.vm[*].app[*].startTime 0.000001s
param *.client.hypervisor.vm[*].dockerEngine.dockerNumber 2
param *.client.hypervisor.vm[*].dockerEngine.docker[*].app.typename "\"TcpBasicClientApp\""
param *.client.hypervisor.vm[*].dockerEngine.docker[*].app.thinkTime 0s
param *.client.hypervisor.vm[*].dockerEngine.docker[*].app.connectAddress "\"server\""
param *.client.hypervisor.vm[*].dockerEngine.docker[*].app.connectPort 1000
param *.client.hypervisor.vm[*].dockerEngine.docker[*].app.idleInterval 0s
param *.client.hypervisor.vm[*].dockerEngine.docker[*].app.numRequestsPerSession 1000
param *.client.hypervisor.vm[*].dockerEngine.docker[*].app.startTime 0.000001s
param *.client.hypervisor.vm[*].dockerEngine.rrClassifier.resourceNumber 2
param *.server.hypervisor.VMno 2
param *.server.hypervisor.vm[*].numApps 1
param *.server.hypervisor.vm[*].app[*].typename "\"TcpGenericServerApp\""
param *.server.hypervisor.vm[*].dockerEngine.rrClassifier.resourceNumber 0
param *.server.hypervisor.vm[0].app[*].localPort 1000
param *.server.hypervisor.vm[1].app[*].localPort 1001
param *.rack.blade[*].node[*].hypervisor.vm[*].app[*].typename "\"TcpBasicClientApp\""
param *.rack.blade[*].node[*].hypervisor.vm[*].app[*].thinkTime 0s
param *.rack.blade[*].node[*].hypervisor.vm[*].app[*].connectAddress "\"rack1.blade[0].node[0]\""
param *.rack.blade[0].node[0].hypervisor.vm[*].app[*].connectPort 10000
param *.rack.blade[0].node[1].hypervisor.vm[*].app[*].connectPort 10010
param *.rack.blade[1].node[0].hypervisor.vm[*].app[*].connectPort 10100
param *.rack.blade[1].node[1].hypervisor.vm[*].app[*].connectPort 10110
param *.rack.blade[*].node[*].hypervisor.vm[*].app[*].idleInterval 0s
param *.rack.blade[*].node[*].hypervisor.vm[*].app[*].numRequestsPerSession 1000
param *.rack.blade[*].node[*].hypervisor.vm[*].app[*].startTime 0.000001s
param *.rack.blade[*].node[*].hypervisor.vm[*].os.rrClassifier.resourceNumber 1
param *.rack.blade[*].node[*].hypervisor.vm[*].dockerEngine.dockerNumber 2
param *.rack.blade[*].node[*].hypervisor.vm[*].dockerEngine.rrClassifier.resourceNumber 2
param *.rack.blade[*].node[*].hypervisor.vm[*].dockerEngine.docker[*].app.typename "\"TcpBasicClientApp\""
param *.rack.blade[*].node[*].hypervisor.vm[*].dockerEngine.docker[*].app.thinkTime 0s
param *.rack.blade[*].node[*].hypervisor.vm[*].dockerEngine.docker[*].app.connectAddress "\"rack1.blade[0].node[1]\""
param *.rack.blade[0].node[0].hypervisor.vm[*].dockerEngine.docker[*].app.connectPort 11000
param *.rack.blade[0].node[1].hypervisor.vm[*].dockerEngine.docker[*].app.connectPort 11010
param *.rack.blade[1].node[0].hypervisor.vm[*].dockerEngine.docker[*].app.connectPort 11100
param *.rack.blade[1].node[1].hypervisor.vm[*].dockerEngine.docker[*].app.connectPort 11110
param *.rack.blade[*].node[*].hypervisor.vm[*].dockerEngine.docker[*].app.idleInterval 0s
param *.rack.blade[*].node[*].hypervisor.vm[*].dockerEngine.docker[*].app.numRequestsPerSession 1000
param *.rack.blade[*].node[*].hypervisor.vm[*].dockerEngine.docker[*].app.startTime 0.000001s
param *.rack1.blade[*].node[*].hypervisor.vm[*].app[*].typename "\"TcpGenericServerApp\""
param *.rack1.blade[*].node[*].hypervisor.vm[*].app[*].localAddress "\"\""
param *.rack1.blade[0].node[0].hypervisor.vm[0].app[*].localPort 10000
param *.rack1.blade[0].node[0].hypervisor.vm[1].app[*].localPort 10010
param *.rack1.blade[0].node[1].hypervisor.vm[0].app[*].localPort 10100
param *.rack1.blade[0].node[1].hypervisor.vm[1].app[*].localPort 10110
param *.rack1.blade[1].node[0].hypervisor.vm[0].app[*].localPort 11000
param *.rack1.blade[1].node[0].hypervisor.vm[1].app[*].localPort 11010
param *.rack1.blade[1].node[1].hypervisor.vm[0].app[*].localPort 11100
param *.rack1.blade[1].node[1].hypervisor.vm[1].app[*].localPort 11110
param *.rack1.blade[*].node[*].hypervisor.vm[*].os.rrClassifier.resourceNumber 1
param *.rack1.blade[*].node[*].hypervisor.vm[*].dockerEngine.rrClassifier.resourceNumber 0

vector 0 Test.rack.blade[0].node[0].cpuModule.cpuCore[0].queue queueLength:vector ETV
attr interpolationmode sample-hold
attr title "queue length, vector"
vector 1 Test.rack.blade[0].node[0].cpuModule.cpuCore[1].queue queueLength:vector ETV
attr interpolationmode sample-hold
attr title "queue length, vector"
vector 2 Test.rack.blade[0].node[0].ram.readQueue queueLength:vector ETV
attr interpolationmode sample-hold
attr title "queue length, vector"
vector 3 Test.rack.blade[0].node[0].ram.writeQueue queueLength:vector ETV
attr interpolationmode sample-hold
attr title "queue length, vector"
vector 4 Test.rack.blade[0].node[0].mainStorage.readQueue queueLength:vector ETV
attr interpolationmode sample-hold
attr title "queue length, vector"
vector 5 Test.rack.blade[0].node[0].mainStorage.writeQueue queueLength:vector ETV
attr interpolationmode sample-hold
attr title "queue length, vector"
vector 6 Test.rack.blade[0].node[1].cpuModule.cpuCore[0].queue queueLength:vector ETV
attr interpolationmode sample-hold
attr title "queue length, vector"
vector 7 Test.rack.blade[0].node[1].cpuModule.cpuCore[1].queue queueLength:vector ETV
attr interpolationmode sample-hold
attr title "queue length, vector"
vector 8 Test.rack.blade[0].node[1].ram.readQueue queueLength:vector ETV
attr interpolationmode sample-hold
attr title "queue length, vector"
vector 9 Test.rack.blade[0].node[1].ram.writeQueue queueLength:vector ETV
attr interpolationmode sample-hold
attr title "queue length, vector"
vector 10 Test.rack.blade[0].node[1].mainStorage.readQueue queueLength:vector ETV
attr interpolationmode sample-hold
attr title "queue length, vector"
vector 11 Test.rack.blade[0].node[1].mainStorage.writeQueue queueLength:vector ETV
attr interpolationmode sample-hold
attr title "queue length, vector"
vector 12 Test.rack.blade[1].node[0].cpuModule.cpuCore[0].queue queueLength:vector ETV
attr interpolationmode sample-hold
attr title "queue length, vector"
vector 13 Test.rack.blade[1].node[0].cpuModule.cpuCore[1].queue queueLength:vector ETV
attr interpolationmode sample-hold
attr title "queue length, vector"
vector 14 Test.rack.blade[1].node[0].ram.readQueue queueLength:vector ETV
attr interpolationmode sample-hold
attr title "queue length, vector"
vector 15 Test.rack.blade[1].node[0].ram.writeQueue queueLength:vector ETV
attr interpolationmode sample-hold
attr title "queue length, vector"
vector 16 Test.rack.blade[1].node[0].mainStorage.readQueue queueLength:vector ETV
attr interpolationmode sample-hold
attr title "queue length, vector"
vector 17 Test.rack.blade[1].node[0].mainStorage.writeQueue queueLength:vector ETV
attr interpolationmode sample-hold
attr title "queue length, vector"
vector 18 Test.rack.blade[1].node[1].cpuModule.cpuCore[0].queue queueLength:vector ETV
attr interpolationmode sample-hold
attr title "queue length, vector"
vector 19 Test.rack.blade[1].node[1].cpuModule.cpuCore[1].queue queueLength:vector ETV
attr interpolationmode sample-hold
attr title "queue length, vector"
vector 20 Test.rack.blade[1].node[1].ram.readQueue queueLength:vector ETV
attr interpolationmode sample-hold
attr title "queue length, vector"
vector 21 Test.rack.blade[1].node[1].ram.writeQueue queueLength:vector ETV
attr interpolationmode sample-hold
attr title "queue length, vector"
vector 22 Test.rack.blade[1].node[1].mainStorage.readQueue queueLength:vector ETV
attr interpolationmode sample-hold
attr title "queue length, vector"
vector 23 Test.rack.blade[1].node[1].mainStorage.writeQueue queueLength:vector ETV
attr interpolationmode sample-hold
attr title "queue length, vector"
vector 24 Test.rack1.blade[0].node[0].cpuModule.cpuCore[0].queue queueLength:vector ETV
attr interpolationmode sample-hold
attr title "queue length, vector"
vector 25 Test.rack1.blade[0].node[0].cpuModule.cpuCore[1].queue queueLength:vector ETV
attr interpolationmode sample-hold
attr title "queue length, vector"
vector 26 Test.rack1.blade[0].node[0].ram.readQueue queueLength:vector ETV
attr interpolationmode sample-hold
attr title "queue length, vector"
vector 27 Test.rack1.blade[0].node[0].ram.writeQueue queueLength:vector ETV
attr interpolationmode sample-hold
attr title "queue length, vector"
vector 28 Test.rack1.blade[0].node[0].mainStorage.readQueue queueLength:vector ETV
attr interpolationmode sample-hold
attr title "queue length, vector"
vector 29 Test.rack1.blade[0].node[0].mainStorage.writeQueue queueLength:vector ETV
attr interpolationmode sample-hold
attr title "queue length, vector"
vector 30 Test.rack1.blade[0].node[1].cpuModule.cpuCore[0].queue queueLength:vector ETV
attr interpolationmode sample-hold
attr title "queue length, vector"
vector 31 Test.rack1.blade[0].node[1].cpuModule.cpuCore[1].queue queueLength:vector ETV
attr interpolationmode sample-hold
attr title "queue length, vector"
vector 32 Test.rack1.blade[0].node[1].ram.readQueue queueLength:vector ETV
attr interpolationmode sample-hold
attr title "queue length, vector"
vector 33 Test.rack1.blade[0].node[1].ram.writeQueue queueLength:vector ETV
attr interpolationmode sample-hold
attr title "queue length, vector"
vector 34 Test.rack1.blade[0].node[1].mainStorage.readQueue queueLength:vector ETV
attr interpolationmode sample-hold
attr title "queue length, vector"
vector 35 Test.rack1.blade[0].node[1].mainStorage.writeQueue queueLength:vector ETV
attr interpolationmode sample-hold
attr title "queue length, vector"
vector 36 Test.rack1.blade[1].node[0].cpuModule.cpuCore[0].queue queueLength:vector ETV
attr interpolationmode sample-hold
attr title "queue length, vector"
vector 37 Test.rack1.blade[1].node[0].cpuModule.cpuCore[1].queue queueLength:vector ETV
attr interpolationmode sample-hold
attr title "queue length, vector"
vector 38 Test.rack1.blade[1].node[0].ram.readQueue queueLength:vector ETV
attr interpolationmode sample-hold
attr title "queue length, vector"
vector 39 Test.rack1.blade[1].node[0].ram.writeQueue queueLength:vector ETV
attr interpolationmode sample-hold
attr title "queue length, vector"
vector 40 Test.rack1.blade[1].node[0].mainStorage.readQueue queueLength:vector ETV
attr interpolationmode sample-hold
attr title "queue length, vector"
vector 41 Test.rack1.blade[1].node[0].mainStorage.writeQueue queueLength:vector ETV
attr interpolationmode sample-hold
attr title "queue length, vector"
vector 42 Test.rack1.blade[1].node[1].cpuModule.cpuCore[0].queue queueLength:vector ETV
attr interpolationmode sample-hold
attr title "queue length, vector"
vector 43 Test.rack1.blade[1].node[1].cpuModule.cpuCore[1].queue queueLength:vector ETV
attr interpolationmode sample-hold
attr title "queue length, vector"
vector 44 Test.rack1.blade[1].node[1].ram.readQueue queueLength:vector ETV
attr interpolationmode sample-hold
attr title "queue length, vector"
vector 45 Test.rack1.blade[1].node[1].ram.writeQueue queueLength:vector ETV
attr interpolationmode sample-hold
attr title "queue length, vector"
vector 46 Test.rack1.blade[1].node[1].mainStorage.readQueue queueLength:vector ETV
attr interpolationmode sample-hold
attr title "queue length, vector"
vector 47 Test.rack1.blade[1].node[1].mainStorage.writeQueue queueLength:vector ETV
attr interpolationmode sample-hold
attr title "queue length, vector"
vector 48 Test.rack.blade[0].node[0].hypervisor.vm[0].app[0] numActiveSessions:vector ETV
attr interpolationmode sample-hold
attr source sum(connect)
attr title "number of active sessions, vector"
vector 49 Test.rack.blade[0].node[0].hypervisor.vm[0].dockerEngine.docker[0].app numActiveSessions:vector ETV
attr interpolationmode sample-hold
attr source sum(connect)
attr title "number of active sessions, vector"
vector 50 Test.rack.blade[0].node[0].hypervisor.vm[0].dockerEngine.docker[1].app numActiveSessions:vector ETV
attr interpolationmode sample-hold
attr source sum(connect)
attr title "number of active sessions, vector"
vector 51 Test.rack.blade[0].node[0].hypervisor.vm[1].app[0] numActiveSessions:vector ETV
attr interpolationmode sample-hold
attr source sum(connect)
attr title "number of active sessions, vector"
vector 52 Test.rack.blade[0].node[0].hypervisor.vm[1].dockerEngine.docker[0].app numActiveSessions:vector ETV
attr interpolationmode sample-hold
attr source sum(connect)
attr title "number of active sessions, vector"
vector 53 Test.rack.blade[0].node[0].hypervisor.vm[1].dockerEngine.docker[1].app numActiveSessions:vector ETV
attr interpolationmode sample-hold
attr source sum(connect)
attr title "number of active sessions, vector"
vector 54 Test.rack.blade[0].node[1].hypervisor.vm[0].app[0] numActiveSessions:vector ETV
attr interpolationmode sample-hold
attr source sum(connect)
attr title "number of active sessions, vector"
vector 55 Test.rack.blade[0].node[1].hypervisor.vm[0].dockerEngine.docker[0].app numActiveSessions:vector ETV
attr interpolationmode sample-hold
attr source sum(connect)
attr title "number of active sessions, vector"
vector 56 Test.rack.blade[0].node[1].hypervisor.vm[0].dockerEngine.docker[1].app numActiveSessions:vector ETV
attr interpolationmode sample-hold
attr source sum(connect)
attr title "number of active sessions, vector"
vector 57 Test.rack.blade[0].node[1].hypervisor.vm[1].app[0] numActiveSessions:vector ETV
attr interpolationmode sample-hold
attr source sum(connect)
attr title "number of active sessions, vector"
vector 58 Test.rack.blade[0].node[1].hypervisor.vm[1].dockerEngine.docker[0].app numActiveSessions:vector ETV
attr interpolationmode sample-hold
attr source sum(connect)
attr title "number of active sessions, vector"
vector 59 Test.rack.blade[0].node[1].hypervisor.vm[1].dockerEngine.docker[1].app numActiveSessions:vector ETV
attr interpolationmode sample-hold
attr source sum(connect)
attr title "number of active sessions, vector"
vector 60 Test.rack.blade[1].node[0].hypervisor.vm[0].app[0] numActiveSessions:vector ETV
attr interpolationmode sample-hold
attr source sum(connect)
attr title "number of active sessions, vector"
vector 61 Test.rack.blade[1].node[0].hypervisor.vm[0].dockerEngine.docker[0].app numActiveSessions:vector ETV
attr interpolationmode sample-hold
attr source sum(connect)
attr title "number of active sessions, vector"
vector 62 Test.rack.blade[1].node[0].hypervisor.vm[0].dockerEngine.docker[1].app numActiveSessions:vector ETV
attr interpolationmode sample-hold
attr source sum(connect)
attr title "number of active sessions, vector"
vector 63 Test.rack.blade[1].node[0].hypervisor.vm[1].app[0] numActiveSessions:vector ETV
attr interpolationmode sample-hold
attr source sum(connect)
attr title "number of active sessions, vector"
vector 64 Test.rack.blade[1].node[0].hypervisor.vm[1].dockerEngine.docker[0].app numActiveSessions:vector ETV
attr interpolationmode sample-hold
attr source sum(connect)
attr title "number of active sessions, vector"
vector 65 Test.rack.blade[1].node[0].hypervisor.vm[1].dockerEngine.docker[1].app numActiveSessions:vector ETV
attr interpolationmode sample-hold
attr source sum(connect)
attr title "number of active sessions, vector"
vector 66 Test.rack.blade[1].node[1].hypervisor.vm[0].app[0] numActiveSessions:vector ETV
attr interpolationmode sample-hold
attr source sum(connect)
attr title "number of active sessions, vector"
vector 67 Test.rack.blade[1].node[1].hypervisor.vm[0].dockerEngine.docker[0].app numActiveSessions:vector ETV
attr interpolationmode sample-hold
attr source sum(connect)
attr title "number of active sessions, vector"
vector 68 Test.rack.blade[1].node[1].hypervisor.vm[0].dockerEngine.docker[1].app numActiveSessions:vector ETV
attr interpolationmode sample-hold
attr source sum(connect)
attr title "number of active sessions, vector"
vector 69 Test.rack.blade[1].node[1].hypervisor.vm[1].app[0] numActiveSessions:vector ETV
attr interpolationmode sample-hold
attr source sum(connect)
attr title "number of active sessions, vector"
vector 70 Test.rack.blade[1].node[1].hypervisor.vm[1].dockerEngine.docker[0].app numActiveSessions:vector ETV
attr interpolationmode sample-hold
attr source sum(connect)
attr title "number of active sessions, vector"
vector 71 Test.rack.blade[1].node[1].hypervisor.vm[1].dockerEngine.docker[1].app numActiveSessions:vector ETV
attr interpolationmode sample-hold
attr source sum(connect)
attr title "number of active sessions, vector"
0	0	0	0
1	0	0	0
2	0	0	0
3	0	0	0
4	0	0	0
5	0	0	0
6	0	0	0
7	0	0	0
8	0	0	0
9	0	0	0
10	0	0	0
11	0	0	0
12	0	0	0
13	0	0	0
14	0	0	0
15	0	0	0
16	0	0	0
17	0	0	0
18	0	0	0
19	0	0	0
20	0	0	0
21	0	0	0
22	0	0	0
23	0	0	0
24	0	0	0
25	0	0	0
26	0	0	0
27	0	0	0
28	0	0	0
29	0	0	0
30	0	0	0
31	0	0	0
32	0	0	0
33	0	0	0
34	0	0	0
35	0	0	0
36	0	0	0
37	0	0	0
38	0	0	0
39	0	0	0
40	0	0	0
41	0	0	0
42	0	0	0
43	0	0	0
44	0	0	0
45	0	0	0
46	0	0	0
47	0	0	0
48	17	0.000001	1
49	18	0.000001	1
50	19	0.000001	1
51	20	0.000001	1
52	21	0.000001	1
53	22	0.000001	1
54	23	0.000001	1
55	24	0.000001	1
56	25	0.000001	1
57	26	0.000001	1
58	27	0.000001	1
59	28	0.000001	1
60	29	0.000001	1
61	30	0.000001	1
62	31	0.000001	1
63	32	0.000001	1
64	33	0.000001	1
65	34	0.000001	1
66	35	0.000001	1
67	36	0.000001	1
68	37	0.000001	1
69	38	0.000001	1
70	39	0.000001	1
71	40	0.000001	1
vector 72 Test.rack.blade[0].node[0].tcp.conn-32 tcpRcvQueueBytes:vector ETV
attr interpolationmode sample-hold
vector 73 Test.rack.blade[0].node[0].tcp.conn-32 rcvAdv:vector ETV
attr interpolationmode sample-hold
vector 74 Test.rack.blade[0].node[0].tcp.conn-32 rcvWnd:vector ETV
attr interpolationmode sample-hold
vector 75 Test.rack.blade[0].node[0].tcp.conn-32 sndAck:vector ETV
attr interpolationmode sample-hold
vector 76 Test.rack.blade[0].node[0].tcp.conn-33 tcpRcvQueueBytes:vector ETV
attr interpolationmode sample-hold
vector 77 Test.rack.blade[0].node[0].tcp.conn-33 rcvAdv:vector ETV
attr interpolationmode sample-hold
vector 78 Test.rack.blade[0].node[0].tcp.conn-33 rcvWnd:vector ETV
attr interpolationmode sample-hold
vector 79 Test.rack.blade[0].node[0].tcp.conn-33 sndAck:vector ETV
attr interpolationmode sample-hold
vector 80 Test.rack.blade[0].node[0].tcp.conn-34 tcpRcvQueueBytes:vector ETV
attr interpolationmode sample-hold
vector 81 Test.rack.blade[0].node[0].tcp.conn-34 rcvAdv:vector ETV
attr interpolationmode sample-hold
vector 82 Test.rack.blade[0].node[0].tcp.conn-34 rcvWnd:vector ETV
attr interpolationmode sample-hold
vector 83 Test.rack.blade[0].node[0].tcp.conn-34 sndAck:vector ETV
attr interpolationmode sample-hold
vector 84 Test.rack.blade[0].node[0].tcp.conn-35 tcpRcvQueueBytes:vector ETV
attr interpolationmode sample-hold
vector 85 Test.rack.blade[0].node[0].tcp.conn-35 rcvAdv:vector ETV
attr interpolationmode sample-hold
vector 86 Test.rack.blade[0].node[0].tcp.conn-35 rcvWnd:vector ETV
attr interpolationmode sample-hold
vector 87 Test.rack.blade[0].node[0].tcp.conn-35 sndAck:vector ETV
attr interpolationmode sample-hold
vector 88 Test.rack.blade[0].node[0].tcp.conn-36 tcpRcvQueueBytes:vector ETV
attr interpolationmode sample-hold
vector 89 Test.rack.blade[0].node[0].tcp.conn-36 rcvAdv:vector ETV
attr interpolationmode sample-hold
vector 90 Test.rack.blade[0].node[0].tcp.conn-36 rcvWnd:vector ETV
attr interpolationmode sample-hold
vector 91 Test.rack.blade[0].node[0].tcp.conn-36 sndAck:vector ETV
attr interpolationmode sample-hold
vector 92 Test.rack.blade[0].node[0].tcp.conn-37 tcpRcvQueueBytes:vector ETV
attr interpolationmode sample-hold
vector 93 Test.rack.blade[0].node[0].tcp.conn-37 rcvAdv:vector ETV
attr interpolationmode sample-hold
vector 94 Test.rack.blade[0].node[0].tcp.conn-37 rcvWnd:vector ETV
attr interpolationmode sample-hold
vector 95 Test.rack.blade[0].node[0].tcp.conn-37 sndAck:vector ETV
attr interpolationmode sample-hold
vector 96 Test.rack.blade[0].node[1].tcp.conn-38 tcpRcvQueueBytes:vector ETV
attr interpolationmode sample-hold
vector 97 Test.rack.blade[0].node[1].tcp.conn-38 rcvAdv:vector ETV
attr interpolationmode sample-hold
vector 98 Test.rack.blade[0].node[1].tcp.conn-38 rcvWnd:vector ETV
attr interpolationmode sample-hold
vector 99 Test.rack.blade[0].node[1].tcp.conn-38 sndAck:vector ETV
attr interpolationmode sample-hold
vector 100 Test.rack.blade[0].node[1].tcp.conn-39 tcpRcvQueueBytes:vector ETV
attr interpolationmode sample-hold
vector 101 Test.rack.blade[0].node[1].tcp.conn-39 rcvAdv:vector ETV
attr interpolationmode sample-hold
vector 102 Test.rack.blade[0].node[1].tcp.conn-39 rcvWnd:vector ETV
attr interpolationmode sample-hold
vector 103 Test.rack.blade[0].node[1].tcp.conn-39 sndAck:vector ETV
attr interpolationmode sample-hold
vector 104 Test.rack.blade[0].node[1].tcp.conn-40 tcpRcvQueueBytes:vector ETV
attr interpolationmode sample-hold
vector 105 Test.rack.blade[0].node[1].tcp.conn-40 rcvAdv:vector ETV
attr interpolationmode sample-hold
vector 106 Test.rack.blade[0].node[1].tcp.conn-40 rcvWnd:vector ETV
attr interpolationmode sample-hold
vector 107 Test.rack.blade[0].node[1].tcp.conn-40 sndAck:vector ETV
attr interpolationmode sample-hold
vector 108 Test.rack.blade[0].node[1].tcp.conn-41 tcpRcvQueueBytes:vector ETV
attr interpolationmode sample-hold
vector 109 Test.rack.blade[0].node[1].tcp.conn-41 rcvAdv:vector ETV
attr interpolationmode sample-hold
vector 110 Test.rack.blade[0].node[1].tcp.conn-41 rcvWnd:vector ETV
attr interpolationmode sample-hold
vector 111 Test.rack.blade[0].node[1].tcp.conn-41 sndAck:vector ETV
attr interpolationmode sample-hold
vector 112 Test.rack.blade[0].node[1].tcp.conn-42 tcpRcvQueueBytes:vector ETV
attr interpolationmode sample-hold
vector 113 Test.rack.blade[0].node[1].tcp.conn-42 rcvAdv:vector ETV
attr interpolationmode sample-hold
vector 114 Test.rack.blade[0].node[1].tcp.conn-42 rcvWnd:vector ETV
attr interpolationmode sample-hold
vector 115 Test.rack.blade[0].node[1].tcp.conn-42 sndAck:vector ETV
attr interpolationmode sample-hold
vector 116 Test.rack.blade[0].node[1].tcp.conn-43 tcpRcvQueueBytes:vector ETV
attr interpolationmode sample-hold
vector 117 Test.rack.blade[0].node[1].tcp.conn-43 rcvAdv:vector ETV
attr interpolationmode sample-hold
vector 118 Test.rack.blade[0].node[1].tcp.conn-43 rcvWnd:vector ETV
attr interpolationmode sample-hold
vector 119 Test.rack.blade[0].node[1].tcp.conn-43 sndAck:vector ETV
attr interpolationmode sample-hold
vector 120 Test.rack.blade[1].node[0].tcp.conn-44 tcpRcvQueueBytes:vector ETV
attr interpolationmode sample-hold
vector 121 Test.rack.blade[1].node[0].tcp.conn-44 rcvAdv:vector ETV
attr interpolationmode sample-hold
vector 122 Test.rack.blade[1].node[0].tcp.conn-44 rcvWnd:vector ETV
attr interpolationmode sample-hold
vector 123 Test.rack.blade[1].node[0].tcp.conn-44 sndAck:vector ETV
attr interpolationmode sample-hold
vector 124 Test.rack.blade[1].node[0].tcp.conn-45 tcpRcvQueueBytes:vector ETV
attr interpolationmode sample-hold
vector 125 Test.rack.blade[1].node[0].tcp.conn-45 rcvAdv:vector ETV
attr interpolationmode sample-hold
vector 126 Test.rack.blade[1].node[0].tcp.conn-45 rcvWnd:vector ETV
attr interpolationmode sample-hold
vector 127 Test.rack.blade[1].node[0].tcp.conn-45 sndAck:vector ETV
attr interpolationmode sample-hold
vector 128 Test.rack.blade[1].node[0].tcp.conn-46 tcpRcvQueueBytes:vector ETV
attr interpolationmode sample-hold
vector 129 Test.rack.blade[1].node[0].tcp.conn-46 rcvAdv:vector ETV
attr interpolationmode sample-hold
vector 130 Test.rack.blade[1].node[0].tcp.conn-46 rcvWnd:vector ETV
attr interpolationmode sample-hold
vector 131 Test.rack.blade[1].node[0].tcp.conn-46 sndAck:vector ETV
attr interpolationmode sample-hold
vector 132 Test.rack.blade[1].node[0].tcp.conn-47 tcpRcvQueueBytes:vector ETV
attr interpolationmode sample-hold
vector 133 Test.rack.blade[1].node[0].tcp.conn-47 rcvAdv:vector ETV
attr interpolationmode sample-hold
vector 134 Test.rack.blade[1].node[0].tcp.conn-47 rcvWnd:vector ETV
attr interpolationmode sample-hold
vector 135 Test.rack.blade[1].node[0].tcp.conn-47 sndAck:vector ETV
attr interpolationmode sample-hold
vector 136 Test.rack.blade[1].node[0].tcp.conn-48 tcpRcvQueueBytes:vector ETV
attr interpolationmode sample-hold
vector 137 Test.rack.blade[1].node[0].tcp.conn-48 rcvAdv:vector ETV
attr interpolationmode sample-hold
vector 138 Test.rack.blade[1].node[0].tcp.conn-48 rcvWnd:vector ETV
attr interpolationmode sample-hold
vector 139 Test.rack.blade[1].node[0].tcp.conn-48 sndAck:vector ETV
attr interpolationmode sample-hold
vector 140 Test.rack.blade[1].node[0].tcp.conn-49 tcpRcvQueueBytes:vector ETV
attr interpolationmode sample-hold
vector 141 Test.rack.blade[1].node[0].tcp.conn-49 rcvAdv:vector ETV
attr interpolationmode sample-hold
vector 142 Test.rack.blade[1].node[0].tcp.conn-49 rcvWnd:vector ETV
attr interpolationmode sample-hold
vector 143 Test.rack.blade[1].node[0].tcp.conn-49 sndAck:vector ETV
attr interpolationmode sample-hold
vector 144 Test.rack.blade[1].node[1].tcp.conn-50 tcpRcvQueueBytes:vector ETV
attr interpolationmode sample-hold
vector 145 Test.rack.blade[1].node[1].tcp.conn-50 rcvAdv:vector ETV
attr interpolationmode sample-hold
vector 146 Test.rack.blade[1].node[1].tcp.conn-50 rcvWnd:vector ETV
attr interpolationmode sample-hold
vector 147 Test.rack.blade[1].node[1].tcp.conn-50 sndAck:vector ETV
attr interpolationmode sample-hold
vector 148 Test.rack.blade[1].node[1].tcp.conn-51 tcpRcvQueueBytes:vector ETV
attr interpolationmode sample-hold
vector 149 Test.rack.blade[1].node[1].tcp.conn-51 rcvAdv:vector ETV
attr interpolationmode sample-hold
vector 150 Test.rack.blade[1].node[1].tcp.conn-51 rcvWnd:vector ETV
attr interpolationmode sample-hold
vector 151 Test.rack.blade[1].node[1].tcp.conn-51 sndAck:vector ETV
attr interpolationmode sample-hold
vector 152 Test.rack.blade[1].node[1].tcp.conn-52 tcpRcvQueueBytes:vector ETV
attr interpolationmode sample-hold
vector 153 Test.rack.blade[1].node[1].tcp.conn-52 rcvAdv:vector ETV
attr interpolationmode sample-hold
vector 154 Test.rack.blade[1].node[1].tcp.conn-52 rcvWnd:vector ETV
attr interpolationmode sample-hold
vector 155 Test.rack.blade[1].node[1].tcp.conn-52 sndAck:vector ETV
attr interpolationmode sample-hold
vector 156 Test.rack.blade[1].node[1].tcp.conn-53 tcpRcvQueueBytes:vector ETV
attr interpolationmode sample-hold
vector 157 Test.rack.blade[1].node[1].tcp.conn-53 rcvAdv:vector ETV
attr interpolationmode sample-hold
vector 158 Test.rack.blade[1].node[1].tcp.conn-53 rcvWnd:vector ETV
attr interpolationmode sample-hold
vector 159 Test.rack.blade[1].node[1].tcp.conn-53 sndAck:vector ETV
attr interpolationmode sample-hold
vector 160 Test.rack.blade[1].node[1].tcp.conn-54 tcpRcvQueueBytes:vector ETV
attr interpolationmode sample-hold
vector 161 Test.rack.blade[1].node[1].tcp.conn-54 rcvAdv:vector ETV
attr interpolationmode sample-hold
vector 162 Test.rack.blade[1].node[1].tcp.conn-54 rcvWnd:vector ETV
attr interpolationmode sample-hold
vector 163 Test.rack.blade[1].node[1].tcp.conn-54 sndAck:vector ETV
attr interpolationmode sample-hold
vector 164 Test.rack.blade[1].node[1].tcp.conn-55 tcpRcvQueueBytes:vector ETV
attr interpolationmode sample-hold
vector 165 Test.rack.blade[1].node[1].tcp.conn-55 rcvAdv:vector ETV
attr interpolationmode sample-hold
vector 166 Test.rack.blade[1].node[1].tcp.conn-55 rcvWnd:vector ETV
attr interpolationmode sample-hold
vector 167 Test.rack.blade[1].node[1].tcp.conn-55 sndAck:vector ETV
attr interpolationmode sample-hold
vector 168 Test.rack.blade[0].node[0].ipv4.arp arpRequestSent:vector(packetBytes) ETV
attr source arpRequestSent
attr title "ARP request sent, vector(packetBytes)"
vector 169 Test.rack.blade[0].node[1].ipv4.arp arpRequestSent:vector(packetBytes) ETV
attr source arpRequestSent
attr title "ARP request sent, vector(packetBytes)"
vector 170 Test.rack.blade[1].node[0].ipv4.arp arpRequestSent:vector(packetBytes) ETV
attr source arpRequestSent
attr title "ARP request sent, vector(packetBytes)"
vector 171 Test.rack.blade[1].node[1].ipv4.arp arpRequestSent:vector(packetBytes) ETV
attr source arpRequestSent
attr title "ARP request sent, vector(packetBytes)"
vector 172 Test.rack.blade[0].node[0].eth[0].encap encapPk:vector(packetBytes) ETV
attr interpolationmode none
attr source encapPk
attr title "packets encapsulated, vector(packetBytes)"
vector 173 Test.rack.blade[0].node[1].eth[0].encap encapPk:vector(packetBytes) ETV
attr interpolationmode none
attr source encapPk
attr title "packets encapsulated, vector(packetBytes)"
vector 174 Test.rack.blade[1].node[0].eth[0].encap encapPk:vector(packetBytes) ETV
attr interpolationmode none
attr source encapPk
attr title "packets encapsulated, vector(packetBytes)"
vector 175 Test.rack.blade[1].node[1].eth[0].encap encapPk:vector(packetBytes) ETV
attr interpolationmode none
attr source encapPk
attr title "packets encapsulated, vector(packetBytes)"
vector 176 Test.rack.blade[0].node[0].eth[0].mac packetReceivedFromUpper:vector(packetBytes) ETV
attr interpolationmode none
attr source packetReceivedFromUpper
attr title "packet bytes from higher layer, vector(packetBytes)"
vector 177 Test.rack.blade[0].node[0].eth[0].mac.queue packetPushed:vector(packetBytes) ETV
attr interpolationmode none
attr title "packet pushed, vector(packetBytes)"
vector 178 Test.rack.blade[0].node[0].eth[0].mac.queue queueLength:vector ETV
attr interpolationmode sample-hold
attr source "count(packetPushed) - count(packetPopped) - count(packetRemoved) - count(packetDropped)"
attr title "queue length, vector"
vector 179 Test.rack.blade[0].node[0].eth[0].mac.queue packetPopped:vector(packetBytes) ETV
attr interpolationmode none
attr title "packet popped, vector(packetBytes)"
vector 180 Test.rack.blade[0].node[0].eth[0].mac.queue queueingTime:vector ETV
attr interpolationmode none
attr source queueingTime(packetPopped)
attr title "queueing times, vector"
attr unit s
vector 181 Test.rack.blade[0].node[1].eth[0].mac packetReceivedFromUpper:vector(packetBytes) ETV
attr interpolationmode none
attr source packetReceivedFromUpper
attr title "packet bytes from higher layer, vector(packetBytes)"
vector 182 Test.rack.blade[0].node[1].eth[0].mac.queue packetPushed:vector(packetBytes) ETV
attr interpolationmode none
attr title "packet pushed, vector(packetBytes)"
vector 183 Test.rack.blade[0].node[1].eth[0].mac.queue queueLength:vector ETV
attr interpolationmode sample-hold
attr source "count(packetPushed) - count(packetPopped) - count(packetRemoved) - count(packetDropped)"
attr title "queue length, vector"
vector 184 Test.rack.blade[0].node[1].eth[0].mac.queue packetPopped:vector(packetBytes) ETV
attr interpolationmode none
attr title "packet popped, vector(packetBytes)"
vector 185 Test.rack.blade[0].node[1].eth[0].mac.queue queueingTime:vector ETV
attr interpolationmode none
attr source queueingTime(packetPopped)
attr title "queueing times, vector"
attr unit s
vector 186 Test.rack.blade[1].node[0].eth[0].mac packetReceivedFromUpper:vector(packetBytes) ETV
attr interpolationmode none
attr source packetReceivedFromUpper
attr title "packet bytes from higher layer, vector(packetBytes)"
vector 187 Test.rack.blade[1].node[0].eth[0].mac.queue packetPushed:vector(packetBytes) ETV
attr interpolationmode none
attr title "packet pushed, vector(packetBytes)"
vector 188 Test.rack.blade[1].node[0].eth[0].mac.queue queueLength:vector ETV
attr interpolationmode sample-hold
attr source "count(packetPushed) - count(packetPopped) - count(packetRemoved) - count(packetDropped)"
attr title "queue length, vector"
vector 189 Test.rack.blade[1].node[0].eth[0].mac.queue packetPopped:vector(packetBytes) ETV
attr interpolationmode none
attr title "packet popped, vector(packetBytes)"
vector 190 Test.rack.blade[1].node[0].eth[0].mac.queue queueingTime:vector ETV
attr interpolationmode none
attr source queueingTime(packetPopped)
attr title "queueing times, vector"
attr unit s
vector 191 Test.rack.blade[1].node[1].eth[0].mac packetReceivedFromUpper:vector(packetBytes) ETV
attr interpolationmode none
attr source packetReceivedFromUpper
attr title "packet bytes from higher layer, vector(packetBytes)"
vector 192 Test.rack.blade[1].node[1].eth[0].mac.queue packetPushed:vector(packetBytes) ETV
attr interpolationmode none
attr title "packet pushed, vector(packetBytes)"
vector 193 Test.rack.blade[1].node[1].eth[0].mac.queue queueLength:vector ETV
attr interpolationmode sample-hold
attr source "count(packetPushed) - count(packetPopped) - count(packetRemoved) - count(packetDropped)"
attr title "queue length, vector"
vector 194 Test.rack.blade[1].node[1].eth[0].mac.queue packetPopped:vector(packetBytes) ETV
attr interpolationmode none
attr title "packet popped, vector(packetBytes)"
vector 195 Test.rack.blade[1].node[1].eth[0].mac.queue queueingTime:vector ETV
attr interpolationmode none
attr source queueingTime(packetPopped)
attr title "queueing times, vector"
attr unit s
vector 196 Test.rack.blade[0].node[0].eth[0].mac txPk:vector(packetBytes) ETV
attr interpolationmode none
attr source packetSentToLower
attr title "packets transmitted, vector(packetBytes)"
vector 197 Test.rack.blade[0].node[1].eth[0].mac txPk:vector(packetBytes) ETV
attr interpolationmode none
attr source packetSentToLower
attr title "packets transmitted, vector(packetBytes)"
vector 198 Test.rack.blade[1].node[0].eth[0].mac txPk:vector(packetBytes) ETV
attr interpolationmode none
attr source packetSentToLower
attr title "packets transmitted, vector(packetBytes)"
vector 199 Test.rack.blade[1].node[1].eth[0].mac txPk:vector(packetBytes) ETV
attr interpolationmode none
attr source packetSentToLower
attr title "packets transmitted, vector(packetBytes)"
vector 200 Test.rack.blade[0].switch.eth[0].mac rxPkOk:vector(packetBytes) ETV
attr interpolationmode none
attr source rxPkOk
attr title "packets received OK, vector(packetBytes)"
vector 201 Test.rack.blade[0].switch.eth[0].mac passedUpPk:vector(packetBytes) ETV
attr interpolationmode none
attr source packetSentToUpper
attr title "packets passed to higher layer, vector(packetBytes)"
vector 202 Test.rack.blade[0].switch.eth[1].mac rxPkOk:vector(packetBytes) ETV
attr interpolationmode none
attr source rxPkOk
attr title "packets received OK, vector(packetBytes)"
vector 203 Test.rack.blade[0].switch.eth[1].mac passedUpPk:vector(packetBytes) ETV
attr interpolationmode none
attr source packetSentToUpper
attr title "packets passed to higher layer, vector(packetBytes)"
vector 204 Test.rack.blade[1].switch.eth[0].mac rxPkOk:vector(packetBytes) ETV
attr interpolationmode none
attr source rxPkOk
attr title "packets received OK, vector(packetBytes)"
vector 205 Test.rack.blade[1].switch.eth[0].mac passedUpPk:vector(packetBytes) ETV
attr interpolationmode none
attr source packetSentToUpper
attr title "packets passed to higher layer, vector(packetBytes)"
vector 206 Test.rack.blade[1].switch.eth[1].mac rxPkOk:vector(packetBytes) ETV
attr interpolationmode none
attr source rxPkOk
attr title "packets received OK, vector(packetBytes)"
vector 207 Test.rack.blade[1].switch.eth[1].mac passedUpPk:vector(packetBytes) ETV
attr interpolationmode none
attr source packetSentToUpper
attr title "packets passed to higher layer, vector(packetBytes)"
vector 208 Test.rack.blade[0].switch.eth[1].mac packetReceivedFromUpper:vector(packetBytes) ETV
attr interpolationmode none
attr source packetReceivedFromUpper
attr title "packet bytes from higher layer, vector(packetBytes)"
vector 209 Test.rack.blade[0].switch.eth[1].mac.queue packetPushed:vector(packetBytes) ETV
attr interpolationmode none
attr title "packet pushed, vector(packetBytes)"
vector 210 Test.rack.blade[0].switch.eth[1].mac.queue queueLength:vector ETV
attr interpolationmode sample-hold
attr source "count(packetPushed) - count(packetPopped) - count(packetRemoved) - count(packetDropped)"
attr title "queue length, vector"
vector 211 Test.rack.blade[0].switch.eth[1].mac.queue packetPopped:vector(packetBytes) ETV
attr interpolationmode none
attr title "packet popped, vector(packetBytes)"
vector 212 Test.rack.blade[0].switch.eth[1].mac.queue queueingTime:vector ETV
attr interpolationmode none
attr source queueingTime(packetPopped)
attr title "queueing times, vector"
attr unit s
vector 213 Test.rack.blade[0].switch.eth[2].mac packetReceivedFromUpper:vector(packetBytes) ETV
attr interpolationmode none
attr source packetReceivedFromUpper
attr title "packet bytes from higher layer, vector(packetBytes)"
vector 214 Test.rack.blade[0].switch.eth[2].mac.queue packetPushed:vector(packetBytes) ETV
attr interpolationmode none
attr title "packet pushed, vector(packetBytes)"
vector 215 Test.rack.blade[0].switch.eth[2].mac.queue queueLength:vector ETV
attr interpolationmode sample-hold
attr source "count(packetPushed) - count(packetPopped) - count(packetRemoved) - count(packetDropped)"
attr title "queue length, vector"
vector 216 Test.rack.blade[0].switch.eth[2].mac.queue packetPopped:vector(packetBytes) ETV
attr interpolationmode none
attr title "packet popped, vector(packetBytes)"
vector 217 Test.rack.blade[0].switch.eth[2].mac.queue queueingTime:vector ETV
attr interpolationmode none
attr source queueingTime(packetPopped)
attr title "queueing times, vector"
attr unit s
vector 218 Test.rack.blade[0].switch.eth[0].mac packetReceivedFromUpper:vector(packetBytes) ETV
attr interpolationmode none
attr source packetReceivedFromUpper
attr title "packet bytes from higher layer, vector(packetBytes)"
vector 219 Test.rack.blade[0].switch.eth[0].mac.queue packetPushed:vector(packetBytes) ETV
attr interpolationmode none
attr title "packet pushed, vector(packetBytes)"
vector 220 Test.rack.blade[0].switch.eth[0].mac.queue queueLength:vector ETV
attr interpolationmode sample-hold
attr source "count(packetPushed) - count(packetPopped) - count(packetRemoved) - count(packetDropped)"
attr title "queue length, vector"
vector 221 Test.rack.blade[0].switch.eth[0].mac.queue packetPopped:vector(packetBytes) ETV
attr interpolationmode none
attr title "packet popped, vector(packetBytes)"
vector 222 Test.rack.blade[0].switch.eth[0].mac.queue queueingTime:vector ETV
attr interpolationmode none
attr source queueingTime(packetPopped)
attr title "queueing times, vector"
attr unit s
vector 223 Test.rack.blade[1].switch.eth[1].mac packetReceivedFromUpper:vector(packetBytes) ETV
attr interpolationmode none
attr source packetReceivedFromUpper
attr title "packet bytes from higher layer, vector(packetBytes)"
vector 224 Test.rack.blade[1].switch.eth[1].mac.queue packetPushed:vector(packetBytes) ETV
attr interpolationmode none
attr title "packet pushed, vector(packetBytes)"
vector 225 Test.rack.blade[1].switch.eth[1].mac.queue queueLength:vector ETV
attr interpolationmode sample-hold
attr source "count(packetPushed) - count(packetPopped) - count(packetRemoved) - count(packetDropped)"
attr title "queue length, vector"
vector 226 Test.rack.blade[1].switch.eth[1].mac.queue packetPopped:vector(packetBytes) ETV
attr interpolationmode none
attr title "packet popped, vector(packetBytes)"
vector 227 Test.rack.blade[1].switch.eth[1].mac.queue queueingTime:vector ETV
attr interpolationmode none
attr source queueingTime(packetPopped)
attr title "queueing times, vector"
attr unit s
vector 228 Test.rack.blade[1].switch.eth[2].mac packetReceivedFromUpper:vector(packetBytes) ETV
attr interpolationmode none
attr source packetReceivedFromUpper
attr title "packet bytes from higher layer, vector(packetBytes)"
vector 229 Test.rack.blade[1].switch.eth[2].mac.queue packetPushed:vector(packetBytes) ETV
attr interpolationmode none
attr title "packet pushed, vector(packetBytes)"
vector 230 Test.rack.blade[1].switch.eth[2].mac.queue queueLength:vector ETV
attr interpolationmode sample-hold
attr source "count(packetPushed) - count(packetPopped) - count(packetRemoved) - count(packetDropped)"
attr title "queue length, vector"
vector 231 Test.rack.blade[1].switch.eth[2].mac.queue packetPopped:vector(packetBytes) ETV
attr interpolationmode none
attr title "packet popped, vector(packetBytes)"
vector 232 Test.rack.blade[1].switch.eth[2].mac.queue queueingTime:vector ETV
attr interpolationmode none
attr source queueingTime(packetPopped)
attr title "queueing times, vector"
attr unit s
vector 233 Test.rack.blade[1].switch.eth[0].mac packetReceivedFromUpper:vector(packetBytes) ETV
attr interpolationmode none
attr source packetReceivedFromUpper
attr title "packet bytes from higher layer, vector(packetBytes)"
vector 234 Test.rack.blade[1].switch.eth[0].mac.queue packetPushed:vector(packetBytes) ETV
attr interpolationmode none
attr title "packet pushed, vector(packetBytes)"
vector 235 Test.rack.blade[1].switch.eth[0].mac.queue queueLength:vector ETV
attr interpolationmode sample-hold
attr source "count(packetPushed) - count(packetPopped) - count(packetRemoved) - count(packetDropped)"
attr title "queue length, vector"
vector 236 Test.rack.blade[1].switch.eth[0].mac.queue packetPopped:vector(packetBytes) ETV
attr interpolationmode none
attr title "packet popped, vector(packetBytes)"
vector 237 Test.rack.blade[1].switch.eth[0].mac.queue queueingTime:vector ETV
attr interpolationmode none
attr source queueingTime(packetPopped)
attr title "queueing times, vector"
attr unit s
vector 238 Test.rack.blade[0].switch.eth[2].mac txPk:vector(packetBytes) ETV
attr interpolationmode none
attr source packetSentToLower
attr title "packets transmitted, vector(packetBytes)"
vector 239 Test.rack.blade[1].switch.eth[2].mac txPk:vector(packetBytes) ETV
attr interpolationmode none
attr source packetSentToLower
attr title "packets transmitted, vector(packetBytes)"
vector 240 Test.rack.blade[0].switch.eth[0].mac txPk:vector(packetBytes) ETV
attr interpolationmode none
attr source packetSentToLower
attr title "packets transmitted, vector(packetBytes)"
vector 241 Test.rack.blade[0].switch.eth[1].mac txPk:vector(packetBytes) ETV
attr interpolationmode none
attr source packetSentToLower
attr title "packets transmitted, vector(packetBytes)"
vector 242 Test.rack.blade[1].switch.eth[0].mac txPk:vector(packetBytes) ETV
attr interpolationmode none
attr source packetSentToLower
attr title "packets transmitted, vector(packetBytes)"
vector 243 Test.rack.blade[1].switch.eth[1].mac txPk:vector(packetBytes) ETV
attr interpolationmode none
attr source packetSentToLower
attr title "packets transmitted, vector(packetBytes)"
vector 244 Test.router1.eth[1].mac rxPkOk:vector(packetBytes) ETV
attr interpolationmode none
attr source rxPkOk
attr title "packets received OK, vector(packetBytes)"
vector 245 Test.router1.eth[1].mac passedUpPk:vector(packetBytes) ETV
attr interpolationmode none
attr source packetSentToUpper
attr title "packets passed to higher layer, vector(packetBytes)"
vector 246 Test.router1.eth[3].mac rxPkOk:vector(packetBytes) ETV
attr interpolationmode none
attr source rxPkOk
attr title "packets received OK, vector(packetBytes)"
vector 247 Test.router1.eth[3].mac passedUpPk:vector(packetBytes) ETV
attr interpolationmode none
attr source packetSentToUpper
attr title "packets passed to higher layer, vector(packetBytes)"
vector 248 Test.router1.eth[1].encap decapPk:vector(packetBytes) ETV
attr interpolationmode none
attr source decapPk
attr title "packets decapsulated, vector(packetBytes)"
vector 249 Test.router1.eth[3].encap decapPk:vector(packetBytes) ETV
attr interpolationmode none
attr source decapPk
attr title "packets decapsulated, vector(packetBytes)"
vector 250 Test.router1.ipv4.arp arpReplySent:vector(packetBytes) ETV
attr source arpReplySent
attr title "ARP replies sent, vector(packetBytes)"
vector 251 Test.router1.eth[1].encap encapPk:vector(packetBytes) ETV
attr interpolationmode none
attr source encapPk
attr title "packets encapsulated, vector(packetBytes)"
vector 252 Test.router1.eth[3].encap encapPk:vector(packetBytes) ETV
attr interpolationmode none
attr source encapPk
attr title "packets encapsulated, vector(packetBytes)"
vector 253 Test.router1.eth[1].mac packetReceivedFromUpper:vector(packetBytes) ETV
attr interpolationmode none
attr source packetReceivedFromUpper
attr title "packet bytes from higher layer, vector(packetBytes)"
vector 254 Test.router1.eth[1].mac.queue packetPushed:vector(packetBytes) ETV
attr interpolationmode none
attr title "packet pushed, vector(packetBytes)"
vector 255 Test.router1.eth[1].mac.queue queueLength:vector ETV
attr interpolationmode sample-hold
attr source "count(packetPushed) - count(packetPopped) - count(packetRemoved) - count(packetDropped)"
attr title "queue length, vector"
vector 256 Test.router1.eth[1].mac.queue packetPopped:vector(packetBytes) ETV
attr interpolationmode none
attr title "packet popped, vector(packetBytes)"
vector 257 Test.router1.eth[1].mac.queue queueingTime:vector ETV
attr interpolationmode none
attr source queueingTime(packetPopped)
attr title "queueing times, vector"
attr unit s
vector 258 Test.router1.eth[3].mac packetReceivedFromUpper:vector(packetBytes) ETV
attr interpolationmode none
attr source packetReceivedFromUpper
attr title "packet bytes from higher layer, vector(packetBytes)"
vector 259 Test.router1.eth[3].mac.queue packetPushed:vector(packetBytes) ETV
attr interpolationmode none
attr title "packet pushed, vector(packetBytes)"
vector 260 Test.router1.eth[3].mac.queue queueLength:vector ETV
attr interpolationmode sample-hold
attr source "count(packetPushed) - count(packetPopped) - count(packetRemoved) - count(packetDropped)"
attr title "queue length, vector"
vector 261 Test.router1.eth[3].mac.queue packetPopped:vector(packetBytes) ETV
attr interpolationmode none
attr title "packet popped, vector(packetBytes)"
vector 262 Test.router1.eth[3].mac.queue queueingTime:vector ETV
attr interpolationmode none
attr source queueingTime(packetPopped)
attr title "queueing times, vector"
attr unit s
vector 263 Test.rack.blade[0].node[0].eth[0].mac rxPkOk:vector(packetBytes) ETV
attr interpolationmode none
attr source rxPkOk
attr title "packets received OK, vector(packetBytes)"
vector 264 Test.rack.blade[0].node[0].eth[0].mac passedUpPk:vector(packetBytes) ETV
attr interpolationmode none
attr source packetSentToUpper
attr title "packets passed to higher layer, vector(packetBytes)"
vector 265 Test.rack.blade[0].node[1].eth[0].mac rxPkOk:vector(packetBytes) ETV
attr interpolationmode none
attr source rxPkOk
attr title "packets received OK, vector(packetBytes)"
vector 266 Test.rack.blade[0].node[1].eth[0].mac passedUpPk:vector(packetBytes) ETV
attr interpolationmode none
attr source packetSentToUpper
attr title "packets passed to higher layer, vector(packetBytes)"
vector 267 Test.rack.blade[1].node[0].eth[0].mac rxPkOk:vector(packetBytes) ETV
attr interpolationmode none
attr source rxPkOk
attr title "packets received OK, vector(packetBytes)"
vector 268 Test.rack.blade[1].node[0].eth[0].mac passedUpPk:vector(packetBytes) ETV
attr interpolationmode none
attr source packetSentToUpper
attr title "packets passed to higher layer, vector(packetBytes)"
vector 269 Test.rack.blade[1].node[1].eth[0].mac rxPkOk:vector(packetBytes) ETV
attr interpolationmode none
attr source rxPkOk
attr title "packets received OK, vector(packetBytes)"
vector 270 Test.rack.blade[1].node[1].eth[0].mac passedUpPk:vector(packetBytes) ETV
attr interpolationmode none
attr source packetSentToUpper
attr title "packets passed to higher layer, vector(packetBytes)"
vector 271 Test.rack.blade[0].node[0].eth[0].encap decapPk:vector(packetBytes) ETV
attr interpolationmode none
attr source decapPk
attr title "packets decapsulated, vector(packetBytes)"
vector 272 Test.rack.blade[0].node[1].eth[0].encap decapPk:vector(packetBytes) ETV
attr interpolationmode none
attr source decapPk
attr title "packets decapsulated, vector(packetBytes)"
vector 273 Test.rack.blade[1].node[0].eth[0].encap decapPk:vector(packetBytes) ETV
attr interpolationmode none
attr source decapPk
attr title "packets decapsulated, vector(packetBytes)"
vector 274 Test.rack.blade[1].node[1].eth[0].encap decapPk:vector(packetBytes) ETV
attr interpolationmode none
attr source decapPk
attr title "packets decapsulated, vector(packetBytes)"
vector 275 Test.router1.eth[1].mac txPk:vector(packetBytes) ETV
attr interpolationmode none
attr source packetSentToLower
attr title "packets transmitted, vector(packetBytes)"
vector 276 Test.router1.eth[3].mac txPk:vector(packetBytes) ETV
attr interpolationmode none
attr source packetSentToLower
attr title "packets transmitted, vector(packetBytes)"
vector 277 Test.rack.blade[0].node[0].ram.writeJobs lifeTime:vector ETV
attr interpolationmode none
attr title "lifetime of arrived jobs, vector"
attr unit s
vector 278 Test.rack.blade[0].node[0].mainStorage.writeJobs lifeTime:vector ETV
attr interpolationmode none
attr title "lifetime of arrived jobs, vector"
attr unit s
vector 279 Test.rack.blade[0].node[1].ram.writeJobs lifeTime:vector ETV
attr interpolationmode none
attr title "lifetime of arrived jobs, vector"
attr unit s
vector 280 Test.rack.blade[0].node[1].mainStorage.writeJobs lifeTime:vector ETV
attr interpolationmode none
attr title "lifetime of arrived jobs, vector"
attr unit s
vector 281 Test.rack.blade[1].node[0].ram.writeJobs lifeTime:vector ETV
attr interpolationmode none
attr title "lifetime of arrived jobs, vector"
attr unit s
vector 282 Test.rack.blade[1].node[0].mainStorage.writeJobs lifeTime:vector ETV
attr interpolationmode none
attr title "lifetime of arrived jobs, vector"
attr unit s
vector 283 Test.rack.blade[1].node[1].ram.writeJobs lifeTime:vector ETV
attr interpolationmode none
attr title "lifetime of arrived jobs, vector"
attr unit s
vector 284 Test.rack.blade[1].node[1].mainStorage.writeJobs lifeTime:vector ETV
attr interpolationmode none
attr title "lifetime of arrived jobs, vector"
attr unit s
vector 285 Test.rack1.blade[0].node[0].ram.writeJobs lifeTime:vector ETV
attr interpolationmode none
attr title "lifetime of arrived jobs, vector"
attr unit s
vector 286 Test.rack1.blade[0].node[0].mainStorage.writeJobs lifeTime:vector ETV
attr interpolationmode none
attr title "lifetime of arrived jobs, vector"
attr unit s
vector 287 Test.rack1.blade[0].node[1].ram.writeJobs lifeTime:vector ETV
attr interpolationmode none
attr title "lifetime of arrived jobs, vector"
attr unit s
vector 288 Test.rack1.blade[0].node[1].mainStorage.writeJobs lifeTime:vector ETV
attr interpolationmode none
attr title "lifetime of arrived jobs, vector"
attr unit s
vector 289 Test.rack1.blade[1].node[0].ram.writeJobs lifeTime:vector ETV
attr interpolationmode none
attr title "lifetime of arrived jobs, vector"
attr unit s
vector 290 Test.rack1.blade[1].node[0].mainStorage.writeJobs lifeTime:vector ETV
attr interpolationmode none
attr title "lifetime of arrived jobs, vector"
attr unit s
vector 291 Test.rack1.blade[1].node[1].ram.writeJobs lifeTime:vector ETV
attr interpolationmode none
attr title "lifetime of arrived jobs, vector"
attr unit s
vector 292 Test.rack1.blade[1].node[1].mainStorage.writeJobs lifeTime:vector ETV
attr interpolationmode none
attr title "lifetime of arrived jobs, vector"
attr unit s
vector 293 Test.rack.blade[0].node[0].hypervisor.vm[0].os.mem lifeTime:vector ETV
attr interpolationmode none
attr title "lifetime of arrived jobs, vector"
attr unit s
vector 294 Test.rack.blade[0].node[0].hypervisor.vm[1].os.mem lifeTime:vector ETV
attr interpolationmode none
attr title "lifetime of arrived jobs, vector"
attr unit s
vector 295 Test.rack.blade[0].node[0].hypervisor.vm[0].os.storage lifeTime:vector ETV
attr interpolationmode none
attr title "lifetime of arrived jobs, vector"
attr unit s
vector 296 Test.rack.blade[0].node[0].hypervisor.vm[1].os.storage lifeTime:vector ETV
attr interpolationmode none
attr title "lifetime of arrived jobs, vector"
attr unit s
vector 297 Test.rack.blade[0].node[1].hypervisor.vm[0].os.mem lifeTime:vector ETV
attr interpolationmode none
attr title "lifetime of arrived jobs, vector"
attr unit s
vector 298 Test.rack.blade[0].node[1].hypervisor.vm[1].os.mem lifeTime:vector ETV
attr interpolationmode none
attr title "lifetime of arrived jobs, vector"
attr unit s
vector 299 Test.rack.blade[0].node[1].hypervisor.vm[0].os.storage lifeTime:vector ETV
attr interpolationmode none
attr title "lifetime of arrived jobs, vector"
attr unit s
vector 300 Test.rack.blade[0].node[1].hypervisor.vm[1].os.storage lifeTime:vector ETV
attr interpolationmode none
attr title "lifetime of arrived jobs, vector"
attr unit s
vector 301 Test.rack.blade[1].node[0].hypervisor.vm[0].os.mem lifeTime:vector ETV
attr interpolationmode none
attr title "lifetime of arrived jobs, vector"
attr unit s
vector 302 Test.rack.blade[1].node[0].hypervisor.vm[1].os.mem lifeTime:vector ETV
attr interpolationmode none
attr title "lifetime of arrived jobs, vector"
attr unit s
vector 303 Test.rack.blade[1].node[0].hypervisor.vm[0].os.storage lifeTime:vector ETV
attr interpolationmode none
attr title "lifetime of arrived jobs, vector"
attr unit s
vector 304 Test.rack.blade[1].node[0].hypervisor.vm[1].os.storage lifeTime:vector ETV
attr interpolationmode none
attr title "lifetime of arrived jobs, vector"
attr unit s
vector 305 Test.rack.blade[1].node[1].hypervisor.vm[0].os.mem lifeTime:vector ETV
attr interpolationmode none
attr title "lifetime of arrived jobs, vector"
attr unit s
vector 306 Test.rack.blade[1].node[1].hypervisor.vm[1].os.mem lifeTime:vector ETV
attr interpolationmode none
attr title "lifetime of arrived jobs, vector"
attr unit s
vector 307 Test.rack.blade[1].node[1].hypervisor.vm[0].os.storage lifeTime:vector ETV
attr interpolationmode none
attr title "lifetime of arrived jobs, vector"
attr unit s
vector 308 Test.rack.blade[1].node[1].hypervisor.vm[1].os.storage lifeTime:vector ETV
attr interpolationmode none
attr title "lifetime of arrived jobs, vector"
attr unit s
vector 309 Test.rack1.blade[0].node[0].hypervisor.vm[0].os.mem lifeTime:vector ETV
attr interpolationmode none
attr title "lifetime of arrived jobs, vector"
attr unit s
vector 310 Test.rack1.blade[0].node[0].hypervisor.vm[1].os.mem lifeTime:vector ETV
attr interpolationmode none
attr title "lifetime of arrived jobs, vector"
attr unit s
vector 311 Test.rack1.blade[0].node[0].hypervisor.vm[0].os.storage lifeTime:vector ETV
attr interpolationmode none
attr title "lifetime of arrived jobs, vector"
attr unit s
vector 312 Test.rack1.blade[0].node[0].hypervisor.vm[1].os.storage lifeTime:vector ETV
attr interpolationmode none
attr title "lifetime of arrived jobs, vector"
attr unit s
vector 313 Test.rack1.blade[0].node[1].hypervisor.vm[0].os.mem lifeTime:vector ETV
attr interpolationmode none
attr title "lifetime of arrived jobs, vector"
attr unit s
vector 314 Test.rack1.blade[0].node[1].hypervisor.vm[1].os.mem lifeTime:vector ETV
attr interpolationmode none
attr title "lifetime of arrived jobs, vector"
attr unit s
vector 315 Test.rack1.blade[0].node[1].hypervisor.vm[0].os.storage lifeTime:vector ETV
attr interpolationmode none
attr title "lifetime of arrived jobs, vector"
attr unit s
vector 316 Test.rack1.blade[0].node[1].hypervisor.vm[1].os.storage lifeTime:vector ETV
attr interpolationmode none
attr title "lifetime of arrived jobs, vector"
attr unit s
vector 317 Test.rack1.blade[1].node[0].hypervisor.vm[0].os.mem lifeTime:vector ETV
attr interpolationmode none
attr title "lifetime of arrived jobs, vector"
attr unit s
vector 318 Test.rack1.blade[1].node[0].hypervisor.vm[1].os.mem lifeTime:vector ETV
attr interpolationmode none
attr title "lifetime of arrived jobs, vector"
attr unit s
vector 319 Test.rack1.blade[1].node[0].hypervisor.vm[0].os.storage lifeTime:vector ETV
attr interpolationmode none
attr title "lifetime of arrived jobs, vector"
attr unit s
vector 320 Test.rack1.blade[1].node[0].hypervisor.vm[1].os.storage lifeTime:vector ETV
attr interpolationmode none
attr title "lifetime of arrived jobs, vector"
attr unit s
vector 321 Test.rack1.blade[1].node[1].hypervisor.vm[0].os.mem lifeTime:vector ETV
attr interpolationmode none
attr title "lifetime of arrived jobs, vector"
attr unit s
vector 322 Test.rack1.blade[1].node[1].hypervisor.vm[1].os.mem lifeTime:vector ETV
attr interpolationmode none
attr title "lifetime of arrived jobs, vector"
attr unit s
vector 323 Test.rack1.blade[1].node[1].hypervisor.vm[0].os.storage lifeTime:vector ETV
attr interpolationmode none
attr title "lifetime of arrived jobs, vector"
attr unit s
vector 324 Test.rack1.blade[1].node[1].hypervisor.vm[1].os.storage lifeTime:vector ETV
attr interpolationmode none
attr title "lifetime of arrived jobs, vector"
attr unit s
vector 325 Test.rack.blade[0].switch.eth[2].mac rxPkOk:vector(packetBytes) ETV
attr interpolationmode none
attr source rxPkOk
attr title "packets received OK, vector(packetBytes)"
vector 326 Test.rack.blade[0].switch.eth[2].mac passedUpPk:vector(packetBytes) ETV
attr interpolationmode none
attr source packetSentToUpper
attr title "packets passed to higher layer, vector(packetBytes)"
vector 327 Test.rack.blade[1].switch.eth[2].mac rxPkOk:vector(packetBytes) ETV
attr interpolationmode none
attr source rxPkOk
attr title "packets received OK, vector(packetBytes)"
vector 328 Test.rack.blade[1].switch.eth[2].mac passedUpPk:vector(packetBytes) ETV
attr interpolationmode none
attr source packetSentToUpper
attr title "packets passed to higher layer, vector(packetBytes)"
vector 329 Test.rack.blade[0].node[0].hypervisor.vm[0].os.cpu lifeTime:vector ETV
attr interpolationmode none
attr title "lifetime of arrived jobs, vector"
attr unit s
vector 330 Test.rack.blade[0].node[0].hypervisor.vm[1].os.cpu lifeTime:vector ETV
attr interpolationmode none
attr title "lifetime of arrived jobs, vector"
attr unit s
vector 331 Test.rack.blade[0].node[1].hypervisor.vm[0].os.cpu lifeTime:vector ETV
attr interpolationmode none
attr title "lifetime of arrived jobs, vector"
attr unit s
vector 332 Test.rack.blade[0].node[1].hypervisor.vm[1].os.cpu lifeTime:vector ETV
attr interpolationmode none
attr title "lifetime of arrived jobs, vector"
attr unit s
vector 333 Test.rack.blade[1].node[0].hypervisor.vm[0].os.cpu lifeTime:vector ETV
attr interpolationmode none
attr title "lifetime of arrived jobs, vector"
attr unit s
vector 334 Test.rack.blade[1].node[0].hypervisor.vm[1].os.cpu lifeTime:vector ETV
attr interpolationmode none
attr title "lifetime of arrived jobs, vector"
attr unit s
vector 335 Test.rack.blade[1].node[1].hypervisor.vm[0].os.cpu lifeTime:vector ETV
attr interpolationmode none
attr title "lifetime of arrived jobs, vector"
attr unit s
vector 336 Test.rack.blade[1].node[1].hypervisor.vm[1].os.cpu lifeTime:vector ETV
attr interpolationmode none
attr title "lifetime of arrived jobs, vector"
attr unit s
vector 337 Test.rack1.blade[0].node[0].hypervisor.vm[0].os.cpu lifeTime:vector ETV
attr interpolationmode none
attr title "lifetime of arrived jobs, vector"
attr unit s
vector 338 Test.rack1.blade[0].node[0].hypervisor.vm[1].os.cpu lifeTime:vector ETV
attr interpolationmode none
attr title "lifetime of arrived jobs, vector"
attr unit s
vector 339 Test.rack1.blade[0].node[1].hypervisor.vm[0].os.cpu lifeTime:vector ETV
attr interpolationmode none
attr title "lifetime of arrived jobs, vector"
attr unit s
vector 340 Test.rack1.blade[0].node[1].hypervisor.vm[1].os.cpu lifeTime:vector ETV
attr interpolationmode none
attr title "lifetime of arrived jobs, vector"
attr unit s
vector 341 Test.rack1.blade[1].node[0].hypervisor.vm[0].os.cpu lifeTime:vector ETV
attr interpolationmode none
attr title "lifetime of arrived jobs, vector"
attr unit s
vector 342 Test.rack1.blade[1].node[0].hypervisor.vm[1].os.cpu lifeTime:vector ETV
attr interpolationmode none
attr title "lifetime of arrived jobs, vector"
attr unit s
vector 343 Test.rack1.blade[1].node[1].hypervisor.vm[0].os.cpu lifeTime:vector ETV
attr interpolationmode none
attr title "lifetime of arrived jobs, vector"
attr unit s
vector 344 Test.rack1.blade[1].node[1].hypervisor.vm[1].os.cpu lifeTime:vector ETV
attr interpolationmode none
attr title "lifetime of arrived jobs, vector"
attr unit s
vector 345 Test.router1.ipv4.arp arpRequestSent:vector(packetBytes) ETV
attr source arpRequestSent
attr title "ARP request sent, vector(packetBytes)"
vector 346 Test.router1.eth[0].encap encapPk:vector(packetBytes) ETV
attr interpolationmode none
attr source encapPk
attr title "packets encapsulated, vector(packetBytes)"
vector 347 Test.router1.eth[0].mac packetReceivedFromUpper:vector(packetBytes) ETV
attr interpolationmode none
attr source packetReceivedFromUpper
attr title "packet bytes from higher layer, vector(packetBytes)"
vector 348 Test.router1.eth[0].mac.queue packetPushed:vector(packetBytes) ETV
attr interpolationmode none
attr title "packet pushed, vector(packetBytes)"
vector 349 Test.router1.eth[0].mac.queue queueLength:vector ETV
attr interpolationmode sample-hold
attr source "count(packetPushed) - count(packetPopped) - count(packetRemoved) - count(packetDropped)"
attr title "queue length, vector"
vector 350 Test.router1.eth[0].mac.queue packetPopped:vector(packetBytes) ETV
attr interpolationmode none
attr title "packet popped, vector(packetBytes)"
vector 351 Test.router1.eth[0].mac.queue queueingTime:vector ETV
attr interpolationmode none
attr source queueingTime(packetPopped)
attr title "queueing times, vector"
attr unit s
vector 352 Test.router1.eth[0].mac txPk:vector(packetBytes) ETV
attr interpolationmode none
attr source packetSentToLower
attr title "packets transmitted, vector(packetBytes)"
vector 353 Test.rack1.blade[0].switch.eth[2].mac rxPkOk:vector(packetBytes) ETV
attr interpolationmode none
attr source rxPkOk
attr title "packets received OK, vector(packetBytes)"
vector 354 Test.rack1.blade[0].switch.eth[2].mac passedUpPk:vector(packetBytes) ETV
attr interpolationmode none
attr source packetSentToUpper
attr title "packets passed to higher layer, vector(packetBytes)"
vector 355 Test.rack1.blade[0].switch.eth[0].mac packetReceivedFromUpper:vector(packetBytes) ETV
attr interpolationmode none
attr source packetReceivedFromUpper
attr title "packet bytes from higher layer, vector(packetBytes)"
vector 356 Test.rack1.blade[0].switch.eth[0].mac.queue packetPushed:vector(packetBytes) ETV
attr interpolationmode none
attr title "packet pushed, vector(packetBytes)"
vector 357 Test.rack1.blade[0].switch.eth[0].mac.queue queueLength:vector ETV
attr interpolationmode sample-hold
attr source "count(packetPushed) - count(packetPopped) - count(packetRemoved) - count(packetDropped)"
attr title "queue length, vector"
vector 358 Test.rack1.blade[0].switch.eth[0].mac.queue packetPopped:vector(packetBytes) ETV
attr interpolationmode none
attr title "packet popped, vector(packetBytes)"
vector 359 Test.rack1.blade[0].switch.eth[0].mac.queue queueingTime:vector ETV
attr interpolationmode none
attr source queueingTime(packetPopped)
attr title "queueing times, vector"
attr unit s
vector 360 Test.rack1.blade[0].switch.eth[1].mac packetReceivedFromUpper:vector(packetBytes) ETV
attr interpolationmode none
attr source packetReceivedFromUpper
attr title "packet bytes from higher layer, vector(packetBytes)"
vector 361 Test.rack1.blade[0].switch.eth[1].mac.queue packetPushed:vector(packetBytes) ETV
attr interpolationmode none
attr title "packet pushed, vector(packetBytes)"
vector 362 Test.rack1.blade[0].switch.eth[1].mac.queue queueLength:vector ETV
attr interpolationmode sample-hold
attr source "count(packetPushed) - count(packetPopped) - count(packetRemoved) - count(packetDropped)"
attr title "queue length, vector"
vector 363 Test.rack1.blade[0].switch.eth[1].mac.queue packetPopped:vector(packetBytes) ETV
attr interpolationmode none
attr title "packet popped, vector(packetBytes)"
vector 364 Test.rack1.blade[0].switch.eth[1].mac.queue queueingTime:vector ETV
attr interpolationmode none
attr source queueingTime(packetPopped)
attr title "queueing times, vector"
attr unit s
vector 365 Test.rack1.blade[0].switch.eth[0].mac txPk:vector(packetBytes) ETV
attr interpolationmode none
attr source packetSentToLower
attr title "packets transmitted, vector(packetBytes)"
vector 366 Test.rack1.blade[0].switch.eth[1].mac txPk:vector(packetBytes) ETV
attr interpolationmode none
attr source packetSentToLower
attr title "packets transmitted, vector(packetBytes)"
vector 367 Test.rack1.blade[0].node[0].eth[0].mac rxPkOk:vector(packetBytes) ETV
attr interpolationmode none
attr source rxPkOk
attr title "packets received OK, vector(packetBytes)"
vector 368 Test.rack1.blade[0].node[0].eth[0].mac passedUpPk:vector(packetBytes) ETV
attr interpolationmode none
attr source packetSentToUpper
attr title "packets passed to higher layer, vector(packetBytes)"
vector 369 Test.rack1.blade[0].node[1].eth[0].mac rxPkOk:vector(packetBytes) ETV
attr interpolationmode none
attr source rxPkOk
attr title "packets received OK, vector(packetBytes)"
vector 370 Test.rack1.blade[0].node[1].eth[0].mac passedUpPk:vector(packetBytes) ETV
attr interpolationmode none
attr source packetSentToUpper
attr title "packets passed to higher layer, vector(packetBytes)"
vector 371 Test.rack1.blade[0].node[0].eth[0].encap decapPk:vector(packetBytes) ETV
attr interpolationmode none
attr source decapPk
attr title "packets decapsulated, vector(packetBytes)"
vector 372 Test.rack1.blade[0].node[1].eth[0].encap decapPk:vector(packetBytes) ETV
attr interpolationmode none
attr source decapPk
attr title "packets decapsulated, vector(packetBytes)"
vector 373 Test.rack1.blade[0].node[0].ipv4.arp arpReplySent:vector(packetBytes) ETV
attr source arpReplySent
attr title "ARP replies sent, vector(packetBytes)"
vector 374 Test.rack1.blade[0].node[0].eth[0].encap encapPk:vector(packetBytes) ETV
attr interpolationmode none
attr source encapPk
attr title "packets encapsulated, vector(packetBytes)"
vector 375 Test.rack1.blade[0].node[0].eth[0].mac packetReceivedFromUpper:vector(packetBytes) ETV
attr interpolationmode none
attr source packetReceivedFromUpper
attr title "packet bytes from higher layer, vector(packetBytes)"
vector 376 Test.rack1.blade[0].node[0].eth[0].mac.queue packetPushed:vector(packetBytes) ETV
attr interpolationmode none
attr title "packet pushed, vector(packetBytes)"
vector 377 Test.rack1.blade[0].node[0].eth[0].mac.queue queueLength:vector ETV
attr interpolationmode sample-hold
attr source "count(packetPushed) - count(packetPopped) - count(packetRemoved) - count(packetDropped)"
attr title "queue length, vector"
vector 378 Test.rack1.blade[0].node[0].eth[0].mac.queue packetPopped:vector(packetBytes) ETV
attr interpolationmode none
attr title "packet popped, vector(packetBytes)"
vector 379 Test.rack1.blade[0].node[0].eth[0].mac.queue queueingTime:vector ETV
attr interpolationmode none
attr source queueingTime(packetPopped)
attr title "queueing times, vector"
attr unit s
vector 380 Test.rack1.blade[0].node[0].eth[0].mac txPk:vector(packetBytes) ETV
attr interpolationmode none
attr source packetSentToLower
attr title "packets transmitted, vector(packetBytes)"
vector 381 Test.rack1.blade[0].node[1].ipv4.arp arpReplySent:vector(packetBytes) ETV
attr source arpReplySent
attr title "ARP replies sent, vector(packetBytes)"
vector 382 Test.rack1.blade[0].node[1].eth[0].encap encapPk:vector(packetBytes) ETV
attr interpolationmode none
attr source encapPk
attr title "packets encapsulated, vector(packetBytes)"
vector 383 Test.rack1.blade[0].node[1].eth[0].mac packetReceivedFromUpper:vector(packetBytes) ETV
attr interpolationmode none
attr source packetReceivedFromUpper
attr title "packet bytes from higher layer, vector(packetBytes)"
vector 384 Test.rack1.blade[0].node[1].eth[0].mac.queue packetPushed:vector(packetBytes) ETV
attr interpolationmode none
attr title "packet pushed, vector(packetBytes)"
vector 385 Test.rack1.blade[0].node[1].eth[0].mac.queue queueLength:vector ETV
attr interpolationmode sample-hold
attr source "count(packetPushed) - count(packetPopped) - count(packetRemoved) - count(packetDropped)"
attr title "queue length, vector"
vector 386 Test.rack1.blade[0].node[1].eth[0].mac.queue packetPopped:vector(packetBytes) ETV
attr interpolationmode none
attr title "packet popped, vector(packetBytes)"
vector 387 Test.rack1.blade[0].node[1].eth[0].mac.queue queueingTime:vector ETV
attr interpolationmode none
attr source queueingTime(packetPopped)
attr title "queueing times, vector"
attr unit s
vector 388 Test.rack1.blade[0].node[1].eth[0].mac txPk:vector(packetBytes) ETV
attr interpolationmode none
attr source packetSentToLower
attr title "packets transmitted, vector(packetBytes)"
vector 389 Test.rack1.blade[0].switch.eth[0].mac rxPkOk:vector(packetBytes) ETV
attr interpolationmode none
attr source rxPkOk
attr title "packets received OK, vector(packetBytes)"
vector 390 Test.rack1.blade[0].switch.eth[0].mac passedUpPk:vector(packetBytes) ETV
attr interpolationmode none
attr source packetSentToUpper
attr title "packets passed to higher layer, vector(packetBytes)"
vector 391 Test.rack1.blade[0].switch.eth[2].mac packetReceivedFromUpper:vector(packetBytes) ETV
attr interpolationmode none
attr source packetReceivedFromUpper
attr title "packet bytes from higher layer, vector(packetBytes)"
vector 392 Test.rack1.blade[0].switch.eth[2].mac.queue packetPushed:vector(packetBytes) ETV
attr interpolationmode none
attr title "packet pushed, vector(packetBytes)"
vector 393 Test.rack1.blade[0].switch.eth[2].mac.queue queueLength:vector ETV
attr interpolationmode sample-hold
attr source "count(packetPushed) - count(packetPopped) - count(packetRemoved) - count(packetDropped)"
attr title "queue length, vector"
vector 394 Test.rack1.blade[0].switch.eth[2].mac.queue packetPopped:vector(packetBytes) ETV
attr interpolationmode none
attr title "packet popped, vector(packetBytes)"
vector 395 Test.rack1.blade[0].switch.eth[2].mac.queue queueingTime:vector ETV
attr interpolationmode none
attr source queueingTime(packetPopped)
attr title "queueing times, vector"
attr unit s
vector 396 Test.rack1.blade[0].switch.eth[2].mac txPk:vector(packetBytes) ETV
attr interpolationmode none
attr source packetSentToLower
attr title "packets transmitted, vector(packetBytes)"
vector 397 Test.rack1.blade[0].switch.eth[1].mac rxPkOk:vector(packetBytes) ETV
attr interpolationmode none
attr source rxPkOk
attr title "packets received OK, vector(packetBytes)"
vector 398 Test.rack1.blade[0].switch.eth[1].mac passedUpPk:vector(packetBytes) ETV
attr interpolationmode none
attr source packetSentToUpper
attr title "packets passed to higher layer, vector(packetBytes)"
vector 399 Test.router1.eth[0].mac rxPkOk:vector(packetBytes) ETV
attr interpolationmode none
attr source rxPkOk
attr title "packets received OK, vector(packetBytes)"
vector 400 Test.router1.eth[0].mac passedUpPk:vector(packetBytes) ETV
attr interpolationmode none
attr source packetSentToUpper
attr title "packets passed to higher layer, vector(packetBytes)"
vector 401 Test.router1.eth[0].encap decapPk:vector(packetBytes) ETV
attr interpolationmode none
attr source decapPk
attr title "packets decapsulated, vector(packetBytes)"
vector 402 Test.rack1.blade[0].node[0].tcp.conn-24 rcvSeq:vector ETV
attr interpolationmode sample-hold
vector 403 Test.rack1.blade[0].node[0].tcp.conn-24 rcvAck:vector ETV
attr interpolationmode sample-hold
vector 404 Test.rack1.blade[0].node[0].tcp.conn-56 rcvAdv:vector ETV
attr interpolationmode sample-hold
vector 405 Test.rack1.blade[0].node[0].tcp.conn-56 sndWnd:vector ETV
attr interpolationmode sample-hold
vector 406 Test.rack1.blade[0].node[0].tcp.conn-56 tcpRcvQueueBytes:vector ETV
attr interpolationmode sample-hold
vector 407 Test.rack1.blade[0].node[0].tcp.conn-56 rcvWnd:vector ETV
attr interpolationmode sample-hold
vector 408 Test.rack1.blade[0].node[0].tcp.conn-56 sndAck:vector ETV
attr interpolationmode sample-hold
vector 409 Test.rack1.blade[0].node[0].tcp.conn-25 rcvSeq:vector ETV
attr interpolationmode sample-hold
vector 410 Test.rack1.blade[0].node[0].tcp.conn-25 rcvAck:vector ETV
attr interpolationmode sample-hold
vector 411 Test.rack1.blade[0].node[0].tcp.conn-57 rcvAdv:vector ETV
attr interpolationmode sample-hold
vector 412 Test.rack1.blade[0].node[0].tcp.conn-57 sndWnd:vector ETV
attr interpolationmode sample-hold
vector 413 Test.rack1.blade[0].node[0].tcp.conn-57 tcpRcvQueueBytes:vector ETV
attr interpolationmode sample-hold
vector 414 Test.rack1.blade[0].node[0].tcp.conn-57 rcvWnd:vector ETV
attr interpolationmode sample-hold
vector 415 Test.rack1.blade[0].node[0].tcp.conn-57 sndAck:vector ETV
attr interpolationmode sample-hold
vector 416 Test.rack1.blade[0].node[0].tcp.conn-58 rcvAdv:vector ETV
attr interpolationmode sample-hold
vector 417 Test.rack1.blade[0].node[0].tcp.conn-58 sndWnd:vector ETV
attr interpolationmode sample-hold
vector 418 Test.rack1.blade[0].node[0].tcp.conn-58 tcpRcvQueueBytes:vector ETV
attr interpolationmode sample-hold
vector 419 Test.rack1.blade[0].node[0].tcp.conn-58 rcvWnd:vector ETV
attr interpolationmode sample-hold
vector 420 Test.rack1.blade[0].node[0].tcp.conn-58 sndAck:vector ETV
attr interpolationmode sample-hold
vector 421 Test.rack1.blade[0].node[0].tcp.conn-59 rcvAdv:vector ETV
attr interpolationmode sample-hold
vector 422 Test.rack1.blade[0].node[0].tcp.conn-59 sndWnd:vector ETV
attr interpolationmode sample-hold
vector 423 Test.rack1.blade[0].node[0].tcp.conn-59 tcpRcvQueueBytes:vector ETV
attr interpolationmode sample-hold
vector 424 Test.rack1.blade[0].node[0].tcp.conn-59 rcvWnd:vector ETV
attr interpolationmode sample-hold
vector 425 Test.rack1.blade[0].node[0].tcp.conn-59 sndAck:vector ETV
attr interpolationmode sample-hold
vector 426 Test.rack.blade[0].node[0].tcp.conn-32 rcvSeq:vector ETV
attr interpolationmode sample-hold
vector 427 Test.rack.blade[0].node[0].tcp.conn-32 rcvAck:vector ETV
attr interpolationmode sample-hold
vector 428 Test.rack.blade[0].node[0].tcp.conn-32 sndWnd:vector ETV
attr interpolationmode sample-hold
vector 429 Test.rack.blade[0].node[0].hypervisor.vm[0].app[0] packetSent:vector(packetBytes) ETV
attr interpolationmode none
attr source packetSent
attr title "packets sent, vector(packetBytes)"
vector 430 Test.rack.blade[0].node[0].tcp.conn-32 sndNxt:vector ETV
attr interpolationmode sample-hold
vector 431 Test.rack.blade[0].node[0].tcp.conn-32 unacked:vector ETV
attr interpolationmode sample-hold
vector 432 Test.rack.blade[1].node[0].tcp.conn-44 rcvSeq:vector ETV
attr interpolationmode sample-hold
vector 433 Test.rack.blade[1].node[0].tcp.conn-44 rcvAck:vector ETV
attr interpolationmode sample-hold
120	77	0.000001	0
433	6256	0.001210888	1
432	6256	0.001210888	0
123	77	0.000001	0
121	77	0.000001	7504
122	77	0.000001	7504
vector 434 Test.rack.blade[1].node[0].tcp.conn-60 tcpRcvQueueBytes:vector ETV
attr interpolationmode sample-hold
vector 435 Test.rack.blade[1].node[0].tcp.conn-60 rcvAdv:vector ETV
attr interpolationmode sample-hold
vector 436 Test.rack.blade[1].node[0].tcp.conn-60 rcvWnd:vector ETV
attr interpolationmode sample-hold
vector 437 Test.rack.blade[1].node[0].tcp.conn-60 sndAck:vector ETV
attr interpolationmode sample-hold
vector 438 Test.rack.blade[0].node[1].tcp.conn-38 rcvSeq:vector ETV
attr interpolationmode sample-hold
vector 439 Test.rack.blade[0].node[1].tcp.conn-38 rcvAck:vector ETV
attr interpolationmode sample-hold
vector 440 Test.rack.blade[0].node[1].tcp.conn-38 sndWnd:vector ETV
attr interpolationmode sample-hold
vector 441 Test.rack.blade[0].node[1].hypervisor.vm[0].app[0] packetSent:vector(packetBytes) ETV
attr interpolationmode none
attr source packetSent
attr title "packets sent, vector(packetBytes)"
vector 442 Test.rack.blade[0].node[1].tcp.conn-38 sndNxt:vector ETV
attr interpolationmode sample-hold
vector 443 Test.rack.blade[0].node[1].tcp.conn-38 unacked:vector ETV
attr interpolationmode sample-hold
vector 444 Test.rack.blade[1].node[1].tcp.conn-50 rcvSeq:vector ETV
attr interpolationmode sample-hold
vector 445 Test.rack.blade[1].node[1].tcp.conn-50 rcvAck:vector ETV
attr interpolationmode sample-hold
144	83	0.000001	0
445	6288	0.001212232	1
444	6288	0.001212232	0
147	83	0.000001	0
145	83	0.000001	7504
146	83	0.000001	7504
vector 446 Test.rack.blade[1].node[1].tcp.conn-61 tcpRcvQueueBytes:vector ETV
attr interpolationmode sample-hold
vector 447 Test.rack.blade[1].node[1].tcp.conn-61 rcvAdv:vector ETV
attr interpolationmode sample-hold
vector 448 Test.rack.blade[1].node[1].tcp.conn-61 rcvWnd:vector ETV
attr interpolationmode sample-hold
vector 449 Test.rack.blade[1].node[1].tcp.conn-61 sndAck:vector ETV
attr interpolationmode sample-hold
vector 450 Test.rack.blade[0].node[0].tcp.conn-35 rcvSeq:vector ETV
attr interpolationmode sample-hold
vector 451 Test.rack.blade[0].node[0].tcp.conn-35 rcvAck:vector ETV
attr interpolationmode sample-hold
vector 452 Test.rack.blade[0].node[0].tcp.conn-35 sndWnd:vector ETV
attr interpolationmode sample-hold
vector 453 Test.rack.blade[0].node[0].hypervisor.vm[1].app[0] packetSent:vector(packetBytes) ETV
attr interpolationmode none
attr source packetSent
attr title "packets sent, vector(packetBytes)"
vector 454 Test.rack.blade[0].node[0].tcp.conn-35 sndNxt:vector ETV
attr interpolationmode sample-hold
vector 455 Test.rack.blade[0].node[0].tcp.conn-35 unacked:vector ETV
attr interpolationmode sample-hold
vector 456 Test.rack.blade[1].node[0].tcp.conn-47 rcvSeq:vector ETV
attr interpolationmode sample-hold
vector 457 Test.rack.blade[1].node[0].tcp.conn-47 rcvAck:vector ETV
attr interpolationmode sample-hold
132	80	0.000001	0
457	6320	0.001213576	1
456	6320	0.001213576	0
135	80	0.000001	0
133	80	0.000001	7504
134	80	0.000001	7504
vector 458 Test.rack.blade[1].node[0].tcp.conn-62 tcpRcvQueueBytes:vector ETV
attr interpolationmode sample-hold
vector 459 Test.rack.blade[1].node[0].tcp.conn-62 rcvAdv:vector ETV
attr interpolationmode sample-hold
vector 460 Test.rack.blade[1].node[0].tcp.conn-62 rcvWnd:vector ETV
attr interpolationmode sample-hold
vector 461 Test.rack.blade[1].node[0].tcp.conn-62 sndAck:vector ETV
attr interpolationmode sample-hold
vector 462 Test.rack.blade[0].node[1].tcp.conn-41 rcvSeq:vector ETV
attr interpolationmode sample-hold
vector 463 Test.rack.blade[0].node[1].tcp.conn-41 rcvAck:vector ETV
attr interpolationmode sample-hold
vector 464 Test.rack.blade[0].node[1].tcp.conn-41 sndWnd:vector ETV
attr interpolationmode sample-hold
vector 465 Test.rack.blade[0].node[1].hypervisor.vm[1].app[0] packetSent:vector(packetBytes) ETV
attr interpolationmode none
attr source packetSent
attr title "packets sent, vector(packetBytes)"
vector 466 Test.rack.blade[0].node[1].tcp.conn-41 sndNxt:vector ETV
attr interpolationmode sample-hold
vector 467 Test.rack.blade[0].node[1].tcp.conn-41 unacked:vector ETV
attr interpolationmode sample-hold
vector 468 Test.rack.blade[1].node[1].tcp.conn-53 rcvSeq:vector ETV
attr interpolationmode sample-hold
vector 469 Test.rack.blade[1].node[1].tcp.conn-53 rcvAck:vector ETV
attr interpolationmode sample-hold
156	86	0.000001	0
469	6354	0.00121492	1
468	6354	0.00121492	0
159	86	0.000001	0
157	86	0.000001	7504
158	86	0.000001	7504
vector 470 Test.rack.blade[1].node[1].tcp.conn-63 tcpRcvQueueBytes:vector ETV
attr interpolationmode sample-hold
vector 471 Test.rack.blade[1].node[1].tcp.conn-63 rcvAdv:vector ETV
attr interpolationmode sample-hold
vector 472 Test.rack.blade[1].node[1].tcp.conn-63 rcvWnd:vector ETV
[...]
attr interpolationmode sample-hold
vector 860 Test.rack.blade[0].node[0].tcp.conn-94 rcvSeq:vector ETV
attr interpolationmode sample-hold
vector 861 Test.rack.blade[0].node[0].tcp.conn-94 rcvAck:vector ETV
attr interpolationmode sample-hold
705	10738	0.001847448	0
861	15050	0.00246364	462
860	15050	0.00246364	0
708	10738	0.001847448	0
706	10738	0.001847448	7504
707	10738	0.001847448	7504
vector 862 Test.rack.blade[0].node[0].tcp.conn-114 tcpRcvQueueBytes:vector ETV
attr interpolationmode sample-hold
vector 863 Test.rack.blade[0].node[0].tcp.conn-114 rcvAdv:vector ETV
attr interpolationmode sample-hold
vector 864 Test.rack.blade[0].node[0].tcp.conn-114 rcvWnd:vector ETV
attr interpolationmode sample-hold
vector 865 Test.rack.blade[0].node[0].tcp.conn-114 sndAck:vector ETV
attr interpolationmode sample-hold
vector 866 Test.rack.blade[0].node[0].tcp.conn-95 rcvSeq:vector ETV
attr interpolationmode sample-hold
vector 867 Test.rack.blade[0].node[0].tcp.conn-95 rcvAck:vector ETV
attr interpolationmode sample-hold
711	10754	0.00184812	0
867	15066	0.002464312	463
866	15066	0.002464312	0
714	10754	0.00184812	0
712	10754	0.00184812	7504
713	10754	0.00184812	7504
vector 868 Test.rack.blade[0].node[0].tcp.conn-115 tcpRcvQueueBytes:vector ETV
attr interpolationmode sample-hold
vector 869 Test.rack.blade[0].node[0].tcp.conn-115 rcvAdv:vector ETV
attr interpolationmode sample-hold
vector 870 Test.rack.blade[0].node[0].tcp.conn-115 rcvWnd:vector ETV
attr interpolationmode sample-hold
vector 871 Test.rack.blade[0].node[0].tcp.conn-115 sndAck:vector ETV
attr interpolationmode sample-hold
vector 872 Test.rack.blade[0].node[1].tcp.conn-96 rcvSeq:vector ETV
attr interpolationmode sample-hold
vector 873 Test.rack.blade[0].node[1].tcp.conn-96 rcvAck:vector ETV
attr interpolationmode sample-hold
719	10787	0.001849	0
873	15082	0.002467	463
872	15082	0.002467	0
722	10787	0.001849	0
720	10787	0.001849	7504
721	10787	0.001849	7504
vector 874 Test.rack.blade[0].node[1].tcp.conn-116 tcpRcvQueueBytes:vector ETV
attr interpolationmode sample-hold
vector 875 Test.rack.blade[0].node[1].tcp.conn-116 rcvAdv:vector ETV
attr interpolationmode sample-hold
vector 876 Test.rack.blade[0].node[1].tcp.conn-116 rcvWnd:vector ETV
attr interpolationmode sample-hold
vector 877 Test.rack.blade[0].node[1].tcp.conn-116 sndAck:vector ETV
attr interpolationmode sample-hold
vector 878 Test.rack.blade[0].node[1].tcp.conn-97 rcvSeq:vector ETV
attr interpolationmode sample-hold
vector 879 Test.rack.blade[0].node[1].tcp.conn-97 rcvAck:vector ETV
attr interpolationmode sample-hold
725	10801	0.001849672	0
879	15135	0.002476824	463
878	15135	0.002476824	0
728	10801	0.001849672	0
726	10801	0.001849672	7504
727	10801	0.001849672	7504
vector 880 Test.rack.blade[0].node[1].tcp.conn-117 tcpRcvQueueBytes:vector ETV
attr interpolationmode sample-hold
vector 881 Test.rack.blade[0].node[1].tcp.conn-117 rcvAdv:vector ETV
attr interpolationmode sample-hold
vector 882 Test.rack.blade[0].node[1].tcp.conn-117 rcvWnd:vector ETV
attr interpolationmode sample-hold
vector 883 Test.rack.blade[0].node[1].tcp.conn-117 sndAck:vector ETV
attr interpolationmode sample-hold
vector 884 Test.rack.blade[0].node[1].tcp.conn-98 rcvSeq:vector ETV
attr interpolationmode sample-hold
vector 885 Test.rack.blade[0].node[1].tcp.conn-98 rcvAck:vector ETV
attr interpolationmode sample-hold
731	10821	0.00185572	0
885	15151	0.002477496	464
884	15151	0.002477496	0
734	10821	0.00185572	0
732	10821	0.00185572	7504
733	10821	0.00185572	7504
vector 886 Test.rack.blade[0].node[1].tcp.conn-118 tcpRcvQueueBytes:vector ETV
attr interpolationmode sample-hold
vector 887 Test.rack.blade[0].node[1].tcp.conn-118 rcvAdv:vector ETV
attr interpolationmode sample-hold
vector 888 Test.rack.blade[0].node[1].tcp.conn-118 rcvWnd:vector ETV
attr interpolationmode sample-hold
vector 889 Test.rack.blade[0].node[1].tcp.conn-118 sndAck:vector ETV
attr interpolationmode sample-hold
vector 890 Test.rack.blade[0].node[1].tcp.conn-99 rcvSeq:vector ETV
attr interpolationmode sample-hold
vector 891 Test.rack.blade[0].node[1].tcp.conn-99 rcvAck:vector ETV
attr interpolationmode sample-hold
744	10841	0.001857064	0
891	15167	0.002478168	465
890	15167	0.002478168	0
747	10841	0.001857064	0
745	10841	0.001857064	7504
746	10841	0.001857064	7504
vector 892 Test.rack.blade[0].node[1].tcp.conn-119 tcpRcvQueueBytes:vector ETV
attr interpolationmode sample-hold
vector 893 Test.rack.blade[0].node[1].tcp.conn-119 rcvAdv:vector ETV
attr interpolationmode sample-hold
vector 894 Test.rack.blade[0].node[1].tcp.conn-119 rcvWnd:vector ETV
attr interpolationmode sample-hold
vector 895 Test.rack.blade[0].node[1].tcp.conn-119 sndAck:vector ETV
attr interpolationmode sample-hold
vector 896 Test.rack.blade[1].node[0].tcp.conn-100 rcvSeq:vector ETV
attr interpolationmode sample-hold
vector 897 Test.rack.blade[1].node[0].tcp.conn-100 rcvAck:vector ETV
attr interpolationmode sample-hold
778	14804	0.002420104	0
897	19416	0.003024712	606
896	19416	0.003024712	0
781	14804	0.002420104	0
779	14804	0.002420104	7504
780	14804	0.002420104	7504
vector 898 Test.rack.blade[1].node[0].tcp.conn-120 tcpRcvQueueBytes:vector ETV
attr interpolationmode sample-hold
vector 899 Test.rack.blade[1].node[0].tcp.conn-120 rcvAdv:vector ETV
attr interpolationmode sample-hold
vector 900 Test.rack.blade[1].node[0].tcp.conn-120 rcvWnd:vector ETV
attr interpolationmode sample-hold
vector 901 Test.rack.blade[1].node[0].tcp.conn-120 sndAck:vector ETV
attr interpolationmode sample-hold
vector 902 Test.rack.blade[1].node[1].tcp.conn-101 rcvSeq:vector ETV
attr interpolationmode sample-hold
vector 903 Test.rack.blade[1].node[1].tcp.conn-101 rcvAck:vector ETV
attr interpolationmode sample-hold
784	14820	0.002421448	0
903	19432	0.003026056	606
902	19432	0.003026056	0
787	14820	0.002421448	0
785	14820	0.002421448	7504
786	14820	0.002421448	7504
vector 904 Test.rack.blade[1].node[1].tcp.conn-121 tcpRcvQueueBytes:vector ETV
attr interpolationmode sample-hold
vector 905 Test.rack.blade[1].node[1].tcp.conn-121 rcvAdv:vector ETV
attr interpolationmode sample-hold
vector 906 Test.rack.blade[1].node[1].tcp.conn-121 rcvWnd:vector ETV
attr interpolationmode sample-hold
vector 907 Test.rack.blade[1].node[1].tcp.conn-121 sndAck:vector ETV
attr interpolationmode sample-hold
vector 908 Test.rack.blade[1].node[0].tcp.conn-102 rcvSeq:vector ETV
attr interpolationmode sample-hold
vector 909 Test.rack.blade[1].node[0].tcp.conn-102 rcvAck:vector ETV
attr interpolationmode sample-hold
790	14836	0.002422792	0
909	19453	0.0030274	606
908	19453	0.0030274	0
793	14836	0.002422792	0
791	14836	0.002422792	7504
792	14836	0.002422792	7504
vector 910 Test.rack.blade[1].node[0].tcp.conn-122 tcpRcvQueueBytes:vector ETV
attr interpolationmode sample-hold
vector 911 Test.rack.blade[1].node[0].tcp.conn-122 rcvAdv:vector ETV
attr interpolationmode sample-hold
vector 912 Test.rack.blade[1].node[0].tcp.conn-122 rcvWnd:vector ETV
attr interpolationmode sample-hold
vector 913 Test.rack.blade[1].node[0].tcp.conn-122 sndAck:vector ETV
attr interpolationmode sample-hold
vector 914 Test.rack.blade[1].node[0].tcp.conn-103 rcvSeq:vector ETV
attr interpolationmode sample-hold
vector 915 Test.rack.blade[1].node[0].tcp.conn-103 rcvAck:vector ETV
attr interpolationmode sample-hold
796	14863	0.00242724	0
915	19476	0.003031848	607
914	19476	0.003031848	0
799	14863	0.00242724	0
797	14863	0.00242724	7504
798	14863	0.00242724	7504
vector 916 Test.rack.blade[1].node[0].tcp.conn-123 tcpRcvQueueBytes:vector ETV
attr interpolationmode sample-hold
vector 917 Test.rack.blade[1].node[0].tcp.conn-123 rcvAdv:vector ETV
attr interpolationmode sample-hold
vector 918 Test.rack.blade[1].node[0].tcp.conn-123 rcvWnd:vector ETV
attr interpolationmode sample-hold
vector 919 Test.rack.blade[1].node[0].tcp.conn-123 sndAck:vector ETV
attr interpolationmode sample-hold
vector 920 Test.rack.blade[1].node[0].tcp.conn-104 rcvSeq:vector ETV
attr interpolationmode sample-hold
vector 921 Test.rack.blade[1].node[0].tcp.conn-104 rcvAck:vector ETV
attr interpolationmode sample-hold
802	14883	0.0024306	0
921	19492	0.003035208	608
920	19492	0.003035208	0
805	14883	0.0024306	0
803	14883	0.0024306	7504
804	14883	0.0024306	7504
vector 922 Test.rack.blade[1].node[0].tcp.conn-124 tcpRcvQueueBytes:vector ETV
attr interpolationmode sample-hold
vector 923 Test.rack.blade[1].node[0].tcp.conn-124 rcvAdv:vector ETV
attr interpolationmode sample-hold
vector 924 Test.rack.blade[1].node[0].tcp.conn-124 rcvWnd:vector ETV
attr interpolationmode sample-hold
vector 925 Test.rack.blade[1].node[0].tcp.conn-124 sndAck:vector ETV
attr interpolationmode sample-hold
vector 926 Test.rack.blade[1].node[1].tcp.conn-105 rcvSeq:vector ETV
attr interpolationmode sample-hold
vector 927 Test.rack.blade[1].node[1].tcp.conn-105 rcvAck:vector ETV
attr interpolationmode sample-hold
808	14899	0.002431272	0
927	19508	0.00303588	608
926	19508	0.00303588	0
811	14899	0.002431272	0
809	14899	0.002431272	7504
810	14899	0.002431272	7504
vector 928 Test.rack.blade[1].node[1].tcp.conn-125 tcpRcvQueueBytes:vector ETV
attr interpolationmode sample-hold
vector 929 Test.rack.blade[1].node[1].tcp.conn-125 rcvAdv:vector ETV
attr interpolationmode sample-hold
vector 930 Test.rack.blade[1].node[1].tcp.conn-125 rcvWnd:vector ETV
attr interpolationmode sample-hold
vector 931 Test.rack.blade[1].node[1].tcp.conn-125 sndAck:vector ETV
attr interpolationmode sample-hold
vector 932 Test.rack.blade[1].node[1].tcp.conn-106 rcvSeq:vector ETV
attr interpolationmode sample-hold
vector 933 Test.rack.blade[1].node[1].tcp.conn-106 rcvAck:vector ETV
attr interpolationmode sample-hold
814	14915	0.002436856	0
933	19538	0.003041464	610
932	19538	0.003041464	0
817	14915	0.002436856	0
815	14915	0.002436856	7504
816	14915	0.002436856	7504
vector 934 Test.rack.blade[1].node[1].tcp.conn-126 tcpRcvQueueBytes:vector ETV
attr interpolationmode sample-hold
vector 935 Test.rack.blade[1].node[1].tcp.conn-126 rcvAdv:vector ETV
attr interpolationmode sample-hold
vector 936 Test.rack.blade[1].node[1].tcp.conn-126 rcvWnd:vector ETV
attr interpolationmode sample-hold
vector 937 Test.rack.blade[1].node[1].tcp.conn-126 sndAck:vector ETV
attr interpolationmode sample-hold
vector 938 Test.rack.blade[1].node[1].tcp.conn-107 rcvSeq:vector ETV
attr interpolationmode sample-hold
vector 939 Test.rack.blade[1].node[1].tcp.conn-107 rcvAck:vector ETV
attr interpolationmode sample-hold
820	14931	0.0024382	0
939	19559	0.003042808	610
938	19559	0.003042808	0
823	14931	0.0024382	0
821	14931	0.0024382	7504
822	14931	0.0024382	7504
vector 940 Test.rack.blade[1].node[1].tcp.conn-127 tcpRcvQueueBytes:vector ETV
attr interpolationmode sample-hold
vector 941 Test.rack.blade[1].node[1].tcp.conn-127 rcvAdv:vector ETV
attr interpolationmode sample-hold
vector 942 Test.rack.blade[1].node[1].tcp.conn-127 rcvWnd:vector ETV
attr interpolationmode sample-hold
vector 943 Test.rack.blade[1].node[1].tcp.conn-127 sndAck:vector ETV
attr interpolationmode sample-hold
vector 944 Test.rack.blade[1].node[0].tcp.conn-108 rcvSeq:vector ETV
attr interpolationmode sample-hold
vector 945 Test.rack.blade[1].node[0].tcp.conn-108 rcvAck:vector ETV
attr interpolationmode sample-hold
826	14947	0.002439544	0
945	19575	0.003044152	610
944	19575	0.003044152	0
829	14947	0.002439544	0
827	14947	0.002439544	7504
828	14947	0.002439544	7504
vector 946 Test.rack.blade[1].node[0].tcp.conn-128 tcpRcvQueueBytes:vector ETV
attr interpolationmode sample-hold
vector 947 Test.rack.blade[1].node[0].tcp.conn-128 rcvAdv:vector ETV
attr interpolationmode sample-hold
vector 948 Test.rack.blade[1].node[0].tcp.conn-128 rcvWnd:vector ETV
attr interpolationmode sample-hold
vector 949 Test.rack.blade[1].node[0].tcp.conn-128 sndAck:vector ETV
attr interpolationmode sample-hold
vector 950 Test.rack.blade[1].node[0].tcp.conn-109 rcvSeq:vector ETV
attr interpolationmode sample-hold
vector 951 Test.rack.blade[1].node[0].tcp.conn-109 rcvAck:vector ETV
attr interpolationmode sample-hold
832	14963	0.0024458	0
951	19600	0.003050408	612
950	19600	0.003050408	0
835	14963	0.0024458	0
833	14963	0.0024458	7504
834	14963	0.0024458	7504
vector 952 Test.rack.blade[1].node[0].tcp.conn-129 tcpRcvQueueBytes:vector ETV
attr interpolationmode sample-hold
vector 953 Test.rack.blade[1].node[0].tcp.conn-129 rcvAdv:vector ETV
attr interpolationmode sample-hold
vector 954 Test.rack.blade[1].node[0].tcp.conn-129 rcvWnd:vector ETV
attr interpolationmode sample-hold
vector 955 Test.rack.blade[1].node[0].tcp.conn-129 sndAck:vector ETV
attr interpolationmode sample-hold
vector 956 Test.rack.blade[1].node[1].tcp.conn-110 rcvSeq:vector ETV
attr interpolationmode sample-hold
vector 957 Test.rack.blade[1].node[1].tcp.conn-110 rcvAck:vector ETV
attr interpolationmode sample-hold
838	14979	0.002447816	0
957	19623	0.003052424	612
956	19623	0.003052424	0
841	14979	0.002447816	0
839	14979	0.002447816	7504
840	14979	0.002447816	7504
vector 958 Test.rack.blade[1].node[1].tcp.conn-130 tcpRcvQueueBytes:vector ETV
attr interpolationmode sample-hold
vector 959 Test.rack.blade[1].node[1].tcp.conn-130 rcvAdv:vector ETV
attr interpolationmode sample-hold
vector 960 Test.rack.blade[1].node[1].tcp.conn-130 rcvWnd:vector ETV
attr interpolationmode sample-hold
vector 961 Test.rack.blade[1].node[1].tcp.conn-130 sndAck:vector ETV
attr interpolationmode sample-hold
vector 962 Test.rack.blade[1].node[1].tcp.conn-111 rcvSeq:vector ETV
attr interpolationmode sample-hold
vector 963 Test.rack.blade[1].node[1].tcp.conn-111 rcvAck:vector ETV
attr interpolationmode sample-hold
844	14995	0.002454488	0
963	19646	0.003059096	614
962	19646	0.003059096	0
847	14995	0.002454488	0
845	14995	0.002454488	7504
846	14995	0.002454488	7504
vector 964 Test.rack.blade[1].node[1].tcp.conn-131 tcpRcvQueueBytes:vector ETV
attr interpolationmode sample-hold
vector 965 Test.rack.blade[1].node[1].tcp.conn-131 rcvAdv:vector ETV
attr interpolationmode sample-hold
vector 966 Test.rack.blade[1].node[1].tcp.conn-131 rcvWnd:vector ETV
attr interpolationmode sample-hold
vector 967 Test.rack.blade[1].node[1].tcp.conn-131 sndAck:vector ETV
attr interpolationmode sample-hold
vector 968 Test.rack.blade[0].node[0].tcp.conn-112 rcvSeq:vector ETV
attr interpolationmode sample-hold
vector 969 Test.rack.blade[0].node[0].tcp.conn-112 rcvAck:vector ETV
attr interpolationmode sample-hold
850	15025	0.002462296	0
969	19676	0.003066904	616
968	19676	0.003066904	0
853	15025	0.002462296	0
851	15025	0.002462296	7504
852	15025	0.002462296	7504
vector 970 Test.rack.blade[0].node[0].tcp.conn-132 tcpRcvQueueBytes:vector ETV
attr interpolationmode sample-hold
vector 971 Test.rack.blade[0].node[0].tcp.conn-132 rcvAdv:vector ETV
attr interpolationmode sample-hold
vector 972 Test.rack.blade[0].node[0].tcp.conn-132 rcvWnd:vector ETV
attr interpolationmode sample-hold
vector 973 Test.rack.blade[0].node[0].tcp.conn-132 sndAck:vector ETV
attr interpolationmode sample-hold
vector 974 Test.rack.blade[0].node[0].tcp.conn-113 rcvSeq:vector ETV
attr interpolationmode sample-hold
vector 975 Test.rack.blade[0].node[0].tcp.conn-113 rcvAck:vector ETV
attr interpolationmode sample-hold
856	15041	0.002462968	0
975	19699	0.003067576	616
974	19699	0.003067576	0
859	15041	0.002462968	0
857	15041	0.002462968	7504
858	15041	0.002462968	7504
vector 976 Test.rack.blade[0].node[0].tcp.conn-133 tcpRcvQueueBytes:vector ETV
attr interpolationmode sample-hold
vector 977 Test.rack.blade[0].node[0].tcp.conn-133 rcvAdv:vector ETV
attr interpolationmode sample-hold
vector 978 Test.rack.blade[0].node[0].tcp.conn-133 rcvWnd:vector ETV
attr interpolationmode sample-hold
vector 979 Test.rack.blade[0].node[0].tcp.conn-133 sndAck:vector ETV
attr interpolationmode sample-hold
vector 980 Test.rack.blade[0].node[0].tcp.conn-114 rcvSeq:vector ETV
attr interpolationmode sample-hold
vector 981 Test.rack.blade[0].node[0].tcp.conn-114 rcvAck:vector ETV
attr interpolationmode sample-hold
862	15057	0.00246364	0
981	19715	0.003068248	616
980	19715	0.003068248	0
865	15057	0.00246364	0
863	15057	0.00246364	7504
864	15057	0.00246364	7504
vector 982 Test.rack.blade[0].node[0].tcp.conn-134 tcpRcvQueueBytes:vector ETV
attr interpolationmode sample-hold
vector 983 Test.rack.blade[0].node[0].tcp.conn-134 rcvAdv:vector ETV
attr interpolationmode sample-hold
vector 984 Test.rack.blade[0].node[0].tcp.conn-134 rcvWnd:vector ETV
attr interpolationmode sample-hold
vector 985 Test.rack.blade[0].node[0].tcp.conn-134 sndAck:vector ETV
attr interpolationmode sample-hold
vector 986 Test.rack.blade[0].node[0].tcp.conn-115 rcvSeq:vector ETV
attr interpolationmode sample-hold
vector 987 Test.rack.blade[0].node[0].tcp.conn-115 rcvAck:vector ETV
attr interpolationmode sample-hold
868	15073	0.002464312	0
987	19731	0.00306892	617
986	19731	0.00306892	0
871	15073	0.002464312	0
869	15073	0.002464312	7504
870	15073	0.002464312	7504
vector 988 Test.rack.blade[0].node[0].tcp.conn-135 tcpRcvQueueBytes:vector ETV
attr interpolationmode sample-hold
vector 989 Test.rack.blade[0].node[0].tcp.conn-135 rcvAdv:vector ETV
attr interpolationmode sample-hold
vector 990 Test.rack.blade[0].node[0].tcp.conn-135 rcvWnd:vector ETV
attr interpolationmode sample-hold
vector 991 Test.rack.blade[0].node[0].tcp.conn-135 sndAck:vector ETV
attr interpolationmode sample-hold
vector 992 Test.rack.blade[0].node[1].tcp.conn-116 rcvSeq:vector ETV
attr interpolationmode sample-hold
vector 993 Test.rack.blade[0].node[1].tcp.conn-116 rcvAck:vector ETV
attr interpolationmode sample-hold
874	15089	0.002467	0
993	19761	0.003079624	617
992	19761	0.003079624	0
877	15089	0.002467	0
875	15089	0.002467	7504
876	15089	0.002467	7504
vector 994 Test.rack.blade[0].node[1].tcp.conn-136 tcpRcvQueueBytes:vector ETV
attr interpolationmode sample-hold
vector 995 Test.rack.blade[0].node[1].tcp.conn-136 rcvAdv:vector ETV
attr interpolationmode sample-hold
vector 996 Test.rack.blade[0].node[1].tcp.conn-136 rcvWnd:vector ETV
attr interpolationmode sample-hold
vector 997 Test.rack.blade[0].node[1].tcp.conn-136 sndAck:vector ETV
attr interpolationmode sample-hold
vector 998 Test.rack.blade[0].node[1].tcp.conn-117 rcvSeq:vector ETV
attr interpolationmode sample-hold
vector 999 Test.rack.blade[0].node[1].tcp.conn-117 rcvAck:vector ETV
attr interpolationmode sample-hold
880	15142	0.002476824	0
999	19840	0.003095032	620
998	19840	0.003095032	0
883	15142	0.002476824	0
881	15142	0.002476824	7504
882	15142	0.002476824	7504
vector 1000 Test.rack.blade[0].node[1].tcp.conn-137 tcpRcvQueueBytes:vector ETV
attr interpolationmode sample-hold
vector 1001 Test.rack.blade[0].node[1].tcp.conn-137 rcvAdv:vector ETV
attr interpolationmode sample-hold
vector 1002 Test.rack.blade[0].node[1].tcp.conn-137 rcvWnd:vector ETV
attr interpolationmode sample-hold
vector 1003 Test.rack.blade[0].node[1].tcp.conn-137 sndAck:vector ETV
attr interpolationmode sample-hold
vector 1004 Test.rack.blade[0].node[1].tcp.conn-118 rcvSeq:vector ETV
attr interpolationmode sample-hold
vector 1005 Test.rack.blade[0].node[1].tcp.conn-118 rcvAck:vector ETV
attr interpolationmode sample-hold
886	15158	0.002477496	0
1005	19856	0.003095704	620
1004	19856	0.003095704	0
889	15158	0.002477496	0
887	15158	0.002477496	7504
888	15158	0.002477496	7504
vector 1006 Test.rack.blade[0].node[1].tcp.conn-138 tcpRcvQueueBytes:vector ETV
attr interpolationmode sample-hold
vector 1007 Test.rack.blade[0].node[1].tcp.conn-138 rcvAdv:vector ETV
attr interpolationmode sample-hold
vector 1008 Test.rack.blade[0].node[1].tcp.conn-138 rcvWnd:vector ETV
attr interpolationmode sample-hold
vector 1009 Test.rack.blade[0].node[1].tcp.conn-138 sndAck:vector ETV
attr interpolationmode sample-hold
vector 1010 Test.rack.blade[0].node[1].tcp.conn-119 rcvSeq:vector ETV
attr interpolationmode sample-hold
vector 1011 Test.rack.blade[0].node[1].tcp.conn-119 rcvAck:vector ETV
attr interpolationmode sample-hold
892	15174	0.002478168	0
1011	19872	0.003096376	620
1010	19872	0.003096376	0
895	15174	0.002478168	0
893	15174	0.002478168	7504
894	15174	0.002478168	7504
